# bitcoin dns seeds and whois results
IP Address|ASN|BGP Prefix|CC|Registry|Allocated|AS Name
102.182.204.96|37611|102.182.0.0/16|ZA|afrinic|2017-06-02|Afrihost, ZA
108.56.134.33|701|108.56.0.0/16|US|arin|2009-06-05|UUNET, US
110.163.162.235|9605|110.163.160.0/22|JP|apnic|2009-04-21|DOCOMO NTT DOCOMO, INC., JP
111.108.18.89|2516|111.108.0.0/16|JP|apnic|2009-06-12|KDDI KDDI CORPORATION, JP
117.51.159.130|63646|117.51.159.0/24|CN|apnic|2007-06-20|XJKJ Beijing Xiaoju Science and Technology Co., Ltd., CN
118.92.122.242|9500|118.92.0.0/16|NZ|apnic|2007-08-24|VODAFONE-TRANSIT-AS Vodafone NZ Ltd., NZ
128.237.154.145|9|128.237.0.0/16|US|arin|1987-05-06|CMU-ROUTER, US
13.48.138.23|16509|13.48.0.0/15|US|arin|2020-08-05|AMAZON-02, US
13.53.123.164|16509|13.53.0.0/16|US|arin|2020-08-05|AMAZON-02, US
136.58.99.43|16591|136.58.96.0/20|US|arin|2015-10-06|GOOGLE-FIBER, US
144.137.20.70|1221|144.136.0.0/15|AU|apnic|1990-12-10|ASN-TELSTRA Telstra Corporation Ltd, AU
144.76.37.126|24940|144.76.0.0/16|DE|ripencc|1990-11-16|HETZNER-AS, DE
159.224.189.250|13188|159.224.189.0/24|UA|ripencc|2011-09-20|TRIOLAN, UA
161.97.101.36|51167|161.97.100.0/23|DE|ripencc|1992-06-23|CONTABO, DE
162.0.234.96|22612|162.0.224.0/20|US|arin|2020-04-03|NAMECHEAP-NET, US
162.244.80.208|19624|162.244.80.0/24|US|arin|2014-03-07|SERVERROOM, US
171.97.33.222|17552|171.97.0.0/18|TH|apnic|2011-03-07|TRUEONLINE-AS-AP True Online, TH
173.231.203.46|22611|173.231.192.0/20|US|arin|2018-10-23|INMOTION, US
173.56.235.225|701|173.56.0.0/16|US|arin|2008-10-09|UUNET, US
174.73.219.243|22773|174.73.128.0/17|US|arin|2009-02-19|ASN-CXA-ALL-CCI-22773-RDC, US
176.223.139.243|62282|176.223.128.0/20|LT|ripencc|2011-11-29|RACKRAY UAB Rakrejus, LT
178.162.19.77|20807|178.162.0.0/18|RU|ripencc|2010-02-03|CREDOLINK-ASN St.-Petersburg, RU
178.164.169.167|20845|178.164.128.0/17|HU|ripencc|2010-02-16|DIGICABLE, HU
178.17.145.83|41164|178.17.144.0/20|NO|ripencc|2010-03-23|GET-NO GET Norway, NO
178.196.1.210|3303|178.196.0.0/15|CH|ripencc|2010-02-24|SWISSCOM Swisscom (Switzerland) Ltd, CH
178.238.123.43|29226|178.238.112.0/20|RU|ripencc|2010-07-16|MASTERTEL-AS Moscow, Russia, RU
178.48.166.206|21334|178.48.128.0/17|HU|ripencc|2010-10-13|ASN-VODAFONE-, HU
178.79.83.93|3212|178.79.64.0/18|SI|ripencc|2010-05-07|TELEMACH Broadband Access & Carrier Services, SI
18.202.248.174|16509|18.202.0.0/15|US|arin|2019-10-07|AMAZON-02, US
18.203.235.181|16509|18.202.0.0/15|US|arin|2019-10-07|AMAZON-02, US
18.228.31.45|16509|18.228.0.0/16|US|arin|2019-10-07|AMAZON-02, US
182.55.245.25|4657|182.55.245.0/24|SG|apnic|2010-03-01|STARHUB-INTERNET StarHub Ltd, SG
184.152.170.168|12271|184.152.0.0/16|US|arin|2010-06-15|TWC-12271-NYC, US
185.141.60.36|44901|185.141.60.0/24|BG|ripencc|2018-02-23|BELCLOUD, BG
185.141.63.163|44901|185.141.63.0/24|CY|ripencc|2018-02-23|BELCLOUD, BG
185.165.168.196|200651|185.165.168.0/24|SC|ripencc|2016-08-26|FLOKINET, SC
185.217.241.142|197304|185.217.241.0/24|BG|ripencc|2017-08-17|DILISGRUP, BG
190.215.121.121|18822|190.215.121.0/24|CL|lacnic|2010-08-18|Manquehuenet, CL
194.26.1.83|209984|194.26.1.0/24|ES|ripencc|2019-11-20|WIBER, ES
195.202.169.149|8339|195.202.160.0/19|AT|ripencc|1998-02-20|KABSI-AS, AT
195.206.105.22|9009|195.206.105.0/24|RO|ripencc|2018-08-07|M247, GB
2.50.248.97|5384|2.50.192.0/18|AE|ripencc|2010-05-28|EMIRATES-INTERNET Emirates Internet, AE
200.87.116.213|6568|200.87.112.0/20|BO|lacnic|2002-06-28|Entel S.A. - EntelNet, BO
203.184.55.57|9790|203.184.0.0/18|NZ|apnic|2004-06-02|VOCUSGROUPNZ VocusGroup, NZ
206.198.196.82|19693|206.198.196.0/23|US|arin|2018-01-12|CENTRILOGIC-ASN, US
206.252.192.6|8002|206.252.192.0/19|US|arin|1996-08-12|STEALTH, US
207.180.223.68|51167|207.180.222.0/23|DE|ripencc|1996-08-21|CONTABO, DE
209.131.236.105|393552|209.131.236.0/23|US|arin|2015-04-20|COL-LPC, US
210.245.40.27|18403|210.245.40.0/21|VN|apnic|2003-11-19|FPT-AS-AP The Corporation for Financing & Promoting Technology, VN
213.178.28.118|29413|213.178.16.0/20|DE|ripencc|1999-12-15|KOMRO-AS Komro Telekommunikations GmbH, DE
23.24.153.172|7922|23.24.0.0/15|US|arin|2012-01-13|COMCAST-7922, US
23.253.164.224|19994|23.253.160.0/19|US|arin|2013-11-08|RACKSPACE, US
24.237.96.82|8047|24.237.0.0/16|US|arin|1997-10-14|GCI, US
34.218.45.5|16509|34.208.0.0/12|US|arin|2016-09-12|AMAZON-02, US
34.87.232.92|15169|34.84.0.0/14|US|arin|2018-09-28|GOOGLE, US
34.97.110.74|15169|34.97.0.0/17|US|arin|2018-09-28|GOOGLE, US
35.166.238.70|16509|35.160.0.0/13|US|arin|2016-08-09|AMAZON-02, US
35.189.17.69|15169|35.189.0.0/19|US|arin|2016-10-11|GOOGLE, US
35.203.15.57|15169|35.200.0.0/14|US|arin|2017-03-21|GOOGLE, US
35.228.238.236|15169|35.228.0.0/14|US|arin|2017-09-29|GOOGLE, US
37.135.146.127|12479|37.135.146.0/23|ES|ripencc|2012-02-21|UNI2-AS, ES
37.152.204.126|6871|37.152.192.0/18|GB|ripencc|2012-03-12|PLUSNET UK Internet Service Provider, GB
37.191.247.69|57963|37.191.128.0/17|NO|ripencc|2012-03-21|LYNET-INTERNETT-AS, NO
45.154.252.98|61072|45.154.252.0/24|GB|ripencc|2019-09-17|EZNET-AS Used by Electrum Technologies GmbH, GB
45.9.188.239|47583|45.9.188.0/22|DE|ripencc|2019-04-23|AS-HOSTINGER, CY
45.92.43.12|208612|45.92.43.0/24|GB|ripencc|2019-07-01|AS-KURT, GB
46.19.137.74|51852|46.19.136.0/21|PA|ripencc|2010-11-15|PLI-AS, PA
46.30.165.147|25521|46.30.160.0/21|UA|ripencc|2010-09-03|ASN-ASIPN, UA
46.59.184.81|15943|46.59.128.0/17|DE|ripencc|2010-10-21|WTNET-AS wilhelm.tel GmbH, DE
47.201.6.134|5650|47.200.0.0/14|US|arin|2015-08-28|FRONTIER-FRTR, US
5.12.138.181|8708|5.12.0.0/14|RO|ripencc|2012-04-27|RCS-RDS 73-75 Dr. Staicovici, RO
5.133.153.155|20875|5.133.144.0/20|BA|ripencc|2012-07-04|HPTNET-AS, BA
5.188.56.58|49505|5.188.56.0/22|RU|ripencc|2012-08-09|SELECTEL, RU
5.9.54.133|24940|5.9.0.0/16|DE|ripencc|2012-04-25|HETZNER-AS, DE
51.77.52.201|16276|51.77.0.0/16|FR|ripencc|1993-09-01|OVH, FR
52.36.94.143|16509|52.36.0.0/14|US|arin|1991-12-19|AMAZON-02, US
54.92.14.235|16509|54.92.0.0/17|US|arin|2014-06-20|AMAZON-02, US
58.105.166.109|4804|58.105.160.0/20|AU|apnic|2005-04-22|MPX-AS Microplex PTY LTD, AU
62.171.186.166|51167|62.171.186.0/23|DE|ripencc|2000-08-18|CONTABO, DE
62.205.155.252|29632|62.205.128.0/19|GI|ripencc|2008-02-01|NASSIST-AS, GI
62.24.78.2|16019|62.24.64.0/20|CZ|ripencc|2000-06-14|VODAFONE-CZ-AS, CZ
63.234.121.181|209|63.224.0.0/12|US|arin|1999-10-11|CENTURYLINK-US-LEGACY-QWEST, US
68.144.232.248|6327|68.144.232.0/22|CA|arin|2002-06-03|SHAW, CA
68.183.75.251|14061|68.183.64.0/20|US|arin|2018-09-18|DIGITALOCEAN-ASN, US
68.224.249.74|22773|68.224.224.0/19|US|arin|2003-03-19|ASN-CXA-ALL-CCI-22773-RDC, US
69.73.28.41|12083|69.73.0.0/18|US|arin|2003-09-03|WOW-INTERNET, US
77.183.226.184|6805|77.176.0.0/12|DE|ripencc|2006-11-17|TDDE-ASN1, DE
77.52.178.235|21497|77.52.128.0/17|UA|ripencc|2007-01-17|UMC-AS, UA
77.70.16.245|35141|77.70.16.0/24|BG|ripencc|2007-02-21|MEGALAN, BG
77.85.204.149|8866|77.85.204.0/24|BG|ripencc|2007-03-19|BTC-AS BULGARIA, BG
78.20.135.129|6848|78.20.0.0/15|BE|ripencc|2007-05-14|TELENET-AS, BE
79.136.94.13|8473|79.136.0.0/17|SE|ripencc|2007-09-27|BAHNHOF http://www.bahnhof.net/, SE
8.17.88.57|36734|8.17.88.0/21|US|arin|1992-12-01|PAXIO-SFBA, US
8.209.71.217|45102|8.209.64.0/19|SG|apnic|1992-12-01|CNNIC-ALIBABA-US-NET-AP Alibaba (US) Technology Co., Ltd., CN
80.138.175.40|3320|80.128.0.0/12|DE|ripencc|2001-08-06|DTAG Internet service provider operations, DE
80.79.114.34|34702|80.79.112.0/20|EE|ripencc|2005-03-18|WAVECOM-AS, EE
81.68.130.11|45090|81.68.128.0/18|CN|apnic|2002-01-11|CNNIC-TENCENT-NET-AP Shenzhen Tencent Computer Systems Company Limited, CN
82.148.25.101|49505|82.148.24.0/22|RU|ripencc|2003-07-10|SELECTEL, RU
82.64.135.138|12322|82.64.0.0/14|FR|ripencc|2003-04-03|PROXAD, FR
84.172.39.209|3320|84.128.0.0/10|DE|ripencc|2004-03-10|DTAG Internet service provider operations, DE
85.93.96.18|34315|85.93.96.0/19|CZ|ripencc|2004-12-09|MAXNET-AS, CZ
86.24.166.3|5089|86.24.0.0/13|GB|ripencc|2005-03-29|NTL, GB
86.40.163.208|5466|86.40.0.0/13|IE|ripencc|2005-03-31|EIRCOM Internet House, IE
87.122.83.186|8881|87.122.80.0/20|DE|ripencc|2005-07-27|VERSATEL, DE
87.166.20.59|3320|87.128.0.0/10|DE|ripencc|2006-03-30|DTAG Internet service provider operations, DE
88.119.128.36|8764|88.119.128.0/20|LT|ripencc|2005-10-24|TELIA-LIETUVA, LT
89.163.225.8|24961|89.163.128.0/17|DE|ripencc|2006-02-17|MYLOC-AS IP Backbone of myLoc managed IT AG, DE
89.252.40.18|31148|89.252.40.0/24|UA|ripencc|2006-08-01|FREENET_LLC, UA
89.88.62.190|5410|89.80.0.0/12|FR|ripencc|2006-02-23|BOUYGTEL-ISP, FR
91.237.77.5|198646|91.237.77.0/24|PL|ripencc|2012-03-21|INETHD-AS, PL
92.201.162.51|20676|92.200.0.0/15|DE|ripencc|2007-10-17|PLUSNET *****************, DE
92.91.191.172|15557|92.88.0.0/13|FR|ripencc|2007-10-17|LDCOMNET, FR
93.209.178.44|3320|93.192.0.0/10|DE|ripencc|2008-02-12|DTAG Internet service provider operations, DE
94.141.169.64|34602|94.141.160.0/19|RU|ripencc|2010-07-07|STARLINK-AS Moscow, Russia, RU
96.224.58.144|701|96.224.0.0/16|US|arin|2006-12-29|UUNET, US
97.84.96.62|20115|97.84.64.0/18|US|arin|2007-03-21|CHARTER-20115, US
99.228.62.2|812|99.228.0.0/16|CA|arin|2007-03-12|ROGERS-COMMUNICATIONS, CA
