# bitcoin dns seeds and whois results
IP Address|ASN|BGP Prefix|CC|Registry|Allocated|AS Name
103.224.119.99|56300|103.224.119.0/24|SG|apnic|2014-01-17|MYREPUBLIC-SG MyRepublic Ltd., SG
104.238.220.199|23470|104.238.220.0/24|US|arin|2018-04-13|RELIABLESITE, US
104.244.79.131|53667|104.244.79.0/24|US|arin|2014-11-10|PONYNET, US
109.236.81.124|49981|109.236.80.0/20|NL|ripencc|2009-12-04|WORLDSTREAM, NL
118.163.74.161|3462|118.163.0.0/16|TW|apnic|2007-10-04|HINET Data Communication Business Group, TW
128.237.154.145|9|128.237.0.0/16|US|arin|1987-05-06|CMU-ROUTER, US
13.76.34.31|8075|13.64.0.0/11|US|arin|2015-03-26|MICROSOFT-CORP-MSN-AS-BLOCK, US
135.23.228.90|5645|135.23.0.0/16|CA|arin|2013-05-09|TEKSAVVY, CA
144.64.144.109|3243|144.64.0.0/16|PT|ripencc|1995-12-11|MEO-RESIDENCIAL, PT
144.91.67.109|51167|144.91.66.0/23|DE|ripencc|1990-11-20|CONTABO, DE
157.230.48.155|14061|157.230.48.0/20|US|arin|2018-08-22|DIGITALOCEAN-ASN, US
158.248.78.77|29695|158.248.0.0/16|NO|ripencc|1993-09-01|ALTIBOX_AS Norway, NO
162.218.233.34|26721|162.218.233.0/24|US|arin|2018-03-20|INYO, US
162.219.197.152|11550|162.219.196.0/22|US|arin|2013-08-16|SDL-20-AS, US
162.239.57.201|7018|162.224.0.0/12|US|arin|2013-05-21|ATT-INTERNET4, US
162.253.153.211|62838|162.253.153.0/24|US|arin|2014-02-18|REPRISE-HOSTING, US
167.172.237.17|14061|167.172.224.0/20|US|ripencc|1993-08-30|DIGITALOCEAN-ASN, US
170.250.84.130|23089|170.250.0.0/17|US|arin|2015-11-02|HOTWIRE-COMMUNICATIONS, US
173.231.203.46|22611|173.231.192.0/20|US|arin|2018-10-23|INMOTION, US
176.196.98.66|39927|176.196.0.0/15|RU|ripencc|2011-07-15|ELIGHT-AS, RU
176.212.185.153|56420|176.212.184.0/22|RU|ripencc|2011-09-28|RYAZAN-AS, RU
178.124.192.87|6697|178.120.0.0/13|BY|ripencc|2009-12-10|BELPAK-AS BELPAK, BY
178.79.83.93|3212|178.79.64.0/18|SI|ripencc|2010-05-07|TELEMACH Broadband Access & Carrier Services, SI
178.85.97.102|33915|178.85.0.0/16|NL|ripencc|2009-12-19|TNF-AS, NL
18.134.242.0|16509|18.132.0.0/14|US|arin|2019-10-07|AMAZON-02, US
18.134.246.255|16509|18.132.0.0/14|US|arin|2019-10-07|AMAZON-02, US
182.100.67.50|4134|182.96.0.0/12|CN|apnic|2010-03-02|CHINANET-BACKBONE No.31,Jin-rong Street, CN
184.105.131.181|6939|184.104.0.0/15|US|arin|2010-05-10|HURRICANE, US
184.64.190.218|6327|184.64.188.0/22|CA|arin|2010-01-15|SHAW, CA
184.83.182.163|11232|184.83.0.0/16|US|arin|2017-09-11|MIDCO-NET, US
185.228.137.238|197540|185.228.136.0/22|DE|ripencc|2017-10-27|NETCUP-AS netcup GmbH, DE
185.233.148.146|60118|185.233.148.0/22|RO|ripencc|2017-11-24|CYBERSMARTSOLUTIONS-AS, RO
185.64.106.226|61272|185.64.104.0/22|LT|ripencc|2014-07-18|IST-AS, LT
188.166.190.154|14061|188.166.176.0/20|US|ripencc|2009-06-05|DIGITALOCEAN-ASN, US
188.166.246.32|14061|188.166.240.0/20|US|ripencc|2009-06-05|DIGITALOCEAN-ASN, US
188.68.45.143|197540|188.68.32.0/20|DE|ripencc|2009-08-25|NETCUP-AS netcup GmbH, DE
189.210.73.246|6503|189.210.72.0/23|MX|lacnic|2008-08-12|Axtel, S.A.B. de C.V., MX
192.192.155.52|1659|192.192.0.0/16|TW|apnic|1992-07-06|ERX-TANET-ASN1 Taiwan Academic Network (TANet) Information Center, TW
194.14.246.52|50066|194.14.246.0/24|SE|ripencc|1993-12-09|SRSTUBES-AS, SE
199.247.249.188|18988|199.247.240.0/20|CA|arin|2017-06-07|CITYWEST-CORP, CA
202.187.50.184|9930|202.186.0.0/15|MY|apnic|1996-10-29|TTNET-MY TIME dotCom Berhad No. 14, Jalan Majistret U1/26 Hicom Glenmarie Industrial Park 40150 Shah Alam Selangor, Malaysia, MY
205.178.110.237|6079|205.178.0.0/17|US|arin|1995-03-20|RCN-AS, US
206.189.109.149|14061|206.189.96.0/20|US|arin|1995-11-15|DIGITALOCEAN-ASN, US
206.189.16.199|14061|206.189.16.0/20|US|arin|1995-11-15|DIGITALOCEAN-ASN, US
209.131.236.105|393552|209.131.236.0/23|US|arin|2015-04-20|COL-LPC, US
211.233.16.206|3786|211.233.0.0/18|KR|apnic|2000-09-08|LGDACOM LG DACOM Corporation, KR
213.178.28.118|29413|213.178.16.0/20|DE|ripencc|1999-12-15|KOMRO-AS Komro Telekommunikations GmbH, DE
213.3.24.104|3303|213.3.0.0/17|CH|ripencc|2000-01-13|SWISSCOM Swisscom (Switzerland) Ltd, CH
213.93.176.58|33915|213.93.128.0/17|NL|ripencc|2000-05-09|TNF-AS, NL
217.19.216.210|1547|217.19.216.0/24|MD|ripencc|2003-01-24|IDK-NETWORK, MD
3.121.94.224|16509|3.120.0.0/14|US|arin|2017-12-20|AMAZON-02, US
3.34.180.213|16509|3.34.0.0/15|US|arin|2017-12-20|AMAZON-02, US
31.132.17.56|57294|31.132.16.0/20|CZ|ripencc|2011-06-16|INTERNET_EXPERT_, CZ
31.179.204.142|201046|31.179.204.0/24|PL|ripencc|2011-03-22|TRAFCOM_NET, PL
31.53.57.241|2856|31.48.0.0/13|GB|ripencc|2010-12-31|BT-UK-AS BTnet UK Regional network, GB
34.106.62.115|15169|34.104.0.0/14|US|arin|2018-09-28|GOOGLE, US
34.121.41.161|15169|34.120.0.0/14|US|arin|2018-09-28|GOOGLE, US
34.221.179.213|16509|34.208.0.0/12|US|arin|2016-09-12|AMAZON-02, US
34.64.225.151|139070|34.64.0.0/16|US|arin|2018-09-28|GOOGLE-AS-AP Google Asia Pacific Pte. Ltd., SG
34.87.251.72|15169|34.84.0.0/14|US|arin|2018-09-28|GOOGLE, US
34.87.70.59|15169|34.84.0.0/14|US|arin|2018-09-28|GOOGLE, US
34.93.175.206|15169|34.92.0.0/14|US|arin|2018-09-28|GOOGLE, US
34.97.78.39|15169|34.97.0.0/17|US|arin|2018-09-28|GOOGLE, US
35.200.77.30|15169|35.200.0.0/14|US|arin|2017-03-21|GOOGLE, US
35.228.240.175|15169|35.228.0.0/14|US|arin|2017-09-29|GOOGLE, US
35.246.216.185|15169|35.244.0.0/14|US|arin|2017-09-29|GOOGLE, US
37.235.223.44|41268|37.235.128.0/17|RU|ripencc|2012-04-16|LANTA-AS, RU
38.111.114.155|62563|38.111.114.0/24|US|arin|1991-04-16|AS-GLOBALTELEHOST, CA
41.97.4.39|36947|41.97.0.0/16|DZ|afrinic|2009-05-04|ALGTEL-AS, DZ
45.128.190.21|43633|45.128.188.0/22|UA|ripencc|2019-07-12|UA-GIGABIT, UA
45.85.48.58|208016|45.85.48.0/22|DE|ripencc|2019-06-04|TINC-AS, DE
46.101.254.30|14061|46.101.128.0/17|US|ripencc|2010-06-24|DIGITALOCEAN-ASN, US
46.126.224.37|6830|46.126.0.0/16|CH|ripencc|2010-06-01|LIBERTYGLOBAL Liberty Global (formerly UPC Broadband Holding, aka AORTA), NL
46.173.211.21|47196|46.173.211.0/24|RU|ripencc|2011-02-07|GARANT-PARK-INTERNET, RU
47.54.212.200|855|47.54.212.0/22|CA|arin|2012-04-09|CANET-ASN-4, CA
5.188.56.57|49505|5.188.56.0/22|RU|ripencc|2012-08-09|SELECTEL, RU
5.189.153.172|51167|5.189.144.0/20|DE|ripencc|2012-08-09|CONTABO, DE
51.77.152.20|16276|51.77.0.0/16|FR|ripencc|1993-09-01|OVH, FR
52.71.252.174|14618|52.70.0.0/15|US|arin|1991-12-19|AMAZON-AES, US
54.254.181.28|16509|54.254.128.0/17|US|arin|2012-03-01|AMAZON-02, US
54.255.204.204|16509|54.255.128.0/17|US|arin|2012-03-01|AMAZON-02, US
54.82.229.41|14618|54.80.0.0/14|US|arin|2014-06-20|AMAZON-AES, US
58.119.175.215|4847|58.118.0.0/15|CN|apnic|2005-05-11|CNIX-AP China Networks Inter-Exchange, CN
58.76.200.11|3786|58.72.0.0/13|KR|apnic|2005-03-16|LGDACOM LG DACOM Corporation, KR
62.165.245.80|20845|62.165.192.0/18|HU|ripencc|2002-11-26|DIGICABLE, HU
62.182.85.52|30860|62.182.85.0/24|UA|ripencc|2008-02-26|YURTEH-AS, UA
64.250.112.70|23367|64.250.112.0/20|US|arin|2010-11-17|GENADAP, US
73.243.184.11|7922|73.0.0.0/8|US|arin|2005-04-19|COMCAST-7922, US
73.63.255.128|7922|73.0.0.0/8|US|arin|2005-04-19|COMCAST-7922, US
77.218.40.83|39651|77.218.32.0/19|SE|ripencc|2007-02-09|TELE2-FIXED-SWEDEN, SE
77.83.117.240|30860|77.83.117.0/24|RU|ripencc|2018-12-13|YURTEH-AS, UA
78.20.227.249|6848|78.20.0.0/15|BE|ripencc|2007-05-14|TELENET-AS, BE
78.26.26.146|202204|78.26.0.0/18|NO|ripencc|2007-08-29|TROLLFJORD, NO
78.27.139.13|15683|78.27.128.0/18|UA|ripencc|2010-06-11|DOMASHKA-AS, UA
78.30.38.104|15704|78.30.32.0/20|ES|ripencc|2007-10-03|AS15704, ES
79.159.204.81|3352|79.159.0.0/16|ES|ripencc|2007-06-07|TELEFONICA_DE_ESPANA, ES
82.116.50.101|30936|82.116.32.0/19|RU|ripencc|2004-01-20|RENET-COM-AS RENET COM Autonomous System, RU
82.202.68.231|25512|82.202.64.0/18|CZ|ripencc|2003-09-23|CDT-AS The Czech Republic, CZ
82.64.49.27|12322|82.64.0.0/14|FR|ripencc|2003-04-03|PROXAD, FR
83.128.142.204|15435|83.128.0.0/16|NL|ripencc|2004-01-05|KABELFOON DELTA Fiber Nederland, NL
84.104.14.162|33915|84.104.0.0/15|NL|ripencc|2004-04-26|TNF-AS, NL
84.237.7.249|34479|84.237.0.0/20|RU|ripencc|2004-06-28|TSC-AS High Current Electronics Institute, RU
85.228.232.171|2119|85.224.0.0/13|SE|ripencc|2004-12-17|TELENOR-NEXTEL Telenor Norge AS, NO
85.243.67.135|3243|85.240.0.0/13|PT|ripencc|2004-01-03|MEO-RESIDENCIAL, PT
86.89.77.44|1136|86.80.0.0/12|NL|ripencc|2005-03-23|KPN KPN National, NL
88.19.38.153|3352|88.19.0.0/16|ES|ripencc|2005-07-13|TELEFONICA_DE_ESPANA, ES
89.163.224.112|24961|89.163.128.0/17|DE|ripencc|2006-02-17|MYLOC-AS IP Backbone of myLoc managed IT AG, DE
90.152.22.234|8220|90.152.0.0/18|GB|ripencc|2006-10-24|COLT COLT Technology Services Group Limited, GB
91.106.131.90|198930|91.106.128.0/18|DE|ripencc|2012-06-21|DE-VSM-ASN Peering, DE
91.205.175.186|51167|91.205.172.0/22|DE|ripencc|2008-09-17|CONTABO, DE
91.58.134.209|3320|91.0.0.0/10|DE|ripencc|2006-07-03|DTAG Internet service provider operations, DE
92.240.69.195|5538|92.240.64.0/19|LV|ripencc|2007-11-20|SIGMANET-NIC, LV
93.159.250.238|34953|93.159.248.0/21|DE|ripencc|2008-07-04|RELAIX RelAix Networks GmbH, DE
94.19.7.55|35807|94.19.0.0/16|RU|ripencc|2008-07-03|SKYNET-SPB-AS, RU
94.62.97.2|12353|94.60.0.0/14|PT|ripencc|2008-06-23|VODAFONE-PT Vodafone Portugal, PT
95.217.201.184|24940|95.217.0.0/16|DE|ripencc|2009-02-24|HETZNER-AS, DE
97.81.244.191|20115|97.81.240.0/20|US|arin|2007-03-21|CHARTER-20115, US
98.35.192.11|7922|98.32.0.0/11|US|arin|2007-06-06|COMCAST-7922, US
