# bitcoin dns seeds and whois results
IP Address|ASN|BGP Prefix|CC|Registry|Allocated|AS Name
101.101.209.80|135354|101.101.208.0/20|KR|apnic|2011-02-28|NBPAP-AS-AP NAVER BUSINESS PLATFORM ASIA PACIFIC PTE. LTD., SG
102.176.189.7|328289|102.176.189.0/24|ZZ|afrinic||-Reserved AS-, ZZ
104.248.60.35|14061|104.248.48.0/20|US|arin|2018-08-06|DIGITALOCEAN-ASN, US
104.35.215.79|20001|104.32.0.0/14|US|arin|2014-03-28|TWC-20001-PACWEST, US
108.31.170.100|701|108.31.0.0/16|US|arin|2009-06-05|UUNET, US
116.58.171.67|2514|116.58.160.0/19|JP|apnic|2007-04-02|INFOSPHERE NTT PC Communications, Inc., JP
116.86.28.125|55430|116.86.0.0/18|SG|apnic|2007-05-18|STARHUB-NGNBN Starhub Ltd, SG
128.199.212.225|14061|128.199.192.0/18|GB|ripencc|1999-04-12|DIGITALOCEAN-ASN, US
13.113.116.175|16509|13.112.0.0/14|US|arin|2016-08-09|AMAZON-02, US
13.127.108.110|16509|13.126.0.0/15|US|arin|2016-08-09|AMAZON-02, US
13.231.20.249|16509|13.230.0.0/15|US|arin|2019-10-01|AMAZON-02, US
13.49.228.150|16509|13.48.0.0/15|US|arin|2020-08-05|AMAZON-02, US
13.49.240.49|16509|13.48.0.0/15|US|arin|2020-08-05|AMAZON-02, US
13.53.107.75|16509|13.53.0.0/16|US|arin|2020-08-05|AMAZON-02, US
13.55.65.255|16509|13.54.0.0/15|US|arin|2020-08-05|AMAZON-02, US
135.181.117.137|24940|135.181.0.0/16|DE|ripencc|1996-04-30|HETZNER-AS, DE
136.143.43.222|15435|136.143.0.0/17|NL|ripencc|1989-08-22|KABELFOON DELTA Fiber Nederland, NL
139.178.69.251|54825|139.178.68.0/22|US|ripencc|1990-03-26|PACKET, US
148.251.28.5|24940|148.251.0.0/16|DE|ripencc|1993-09-01|HETZNER-AS, DE
15.206.84.150|16509|15.206.0.0/15|US|arin|2019-03-26|AMAZON-02, US
155.4.69.252|8473|155.4.0.0/16|NO|ripencc|1991-10-30|BAHNHOF http://www.bahnhof.net/, SE
161.35.54.110|14061|161.35.48.0/20|US|arin|2019-07-30|DIGITALOCEAN-ASN, US
165.22.227.159|14061|165.22.224.0/20|US|arin|2018-10-16|DIGITALOCEAN-ASN, US
168.119.176.229|24940|168.119.0.0/16|DE|ripencc|1994-04-05|HETZNER-AS, DE
173.249.60.9|51167|173.249.60.0/23|DE|ripencc|2010-05-26|CONTABO, DE
174.115.197.190|812|174.115.192.0/18|CA|arin|2009-03-04|ROGERS-COMMUNICATIONS, CA
175.214.58.100|4766|175.208.0.0/13|KR|apnic|2010-01-27|KIXS-AS-KR Korea Telecom, KR
178.41.45.36|6855|178.40.0.0/15|SK|ripencc|2010-02-02|SK-TELEKOM Slovak Telekom / T-Mobile CZ, SK
178.63.242.43|24940|178.63.0.0/16|DE|ripencc|2010-03-02|HETZNER-AS, DE
178.63.94.131|24940|178.63.0.0/16|DE|ripencc|2010-03-02|HETZNER-AS, DE
178.79.83.93|3212|178.79.64.0/18|SI|ripencc|2010-05-07|TELEMACH Broadband Access & Carrier Services, SI
18.162.46.146|16509|18.162.0.0/16|US|arin|2019-10-07|AMAZON-02, US
18.196.79.108|16509|18.196.0.0/15|US|arin|2019-10-07|AMAZON-02, US
181.48.77.26|14080|181.48.64.0/19|CO|lacnic|2011-05-02|Telmex Colombia S.A., CO
185.131.63.83|44489|185.131.60.0/22|CZ|ripencc|2015-12-15|STARNET, CZ
185.204.197.112|60631|185.204.197.0/24|IR|ripencc|2021-02-25|PARVASYSTEM, IR
188.165.244.143|16276|188.165.0.0/16|FR|ripencc|2009-06-05|OVH, FR
188.28.109.192|206067|188.28.96.0/20|GB|ripencc|2009-02-13|H3GUK, GB
193.196.37.62|34878|193.196.32.0/20|DE|ripencc|1993-09-01|KIT Karlsruhe Institute of Technology, DE
193.42.110.30|60144|193.42.110.0/23|RU|ripencc|2018-10-23|THREE-W-INFRA-AS -- TRANSIT --, NL
195.224.116.20|5413|195.224.0.0/16|GB|ripencc|1996-09-18|AS5413, GB
199.247.7.208|20473|199.247.0.0/21|US|ripencc|1996-04-09|AS-CHOOPA, US
2.85.253.6|6799|2.85.0.0/16|GR|ripencc|2010-05-12|OTENET-GR Athens - Greece, GR
202.73.14.205|55720|202.73.14.0/24|MY|apnic|2004-12-03|GIGABIT-MY Gigabit Hosting Sdn Bhd, MY
203.132.92.216|38195|203.132.92.0/24|AU|apnic|2007-04-11|SUPERLOOP-AS-AP Superloop, AU
208.92.194.252|36472|208.92.194.0/24|CA|arin|2015-03-27|GCIS, CA
209.150.60.107|6079|209.150.32.0/19|US|arin|1997-11-11|RCN-AS, US
212.63.102.86|201704|212.63.96.0/21|ES|ripencc|2009-04-27|ESOLLERENSE-AS, ES
213.202.212.78|24961|213.202.192.0/18|DE|ripencc|2002-10-21|MYLOC-AS IP Backbone of myLoc managed IT AG, DE
213.219.144.164|9031|213.219.128.0/18|BE|ripencc|2000-08-30|EDPNET, BE
213.249.134.92|12390|213.249.128.0/18|GB|ripencc|2000-06-16|KINGSTON-UK-AS, GB
216.229.241.250|12266|216.229.240.0/21|US|arin|1999-06-08|SRN-HOSTING, US
217.145.94.94|20665|217.145.80.0/20|BG|ripencc|2004-04-06|VARNANET-AS, BG
217.182.142.251|16276|217.182.0.0/16|FR|ripencc|2001-03-02|OVH, FR
217.19.216.210|1547|217.19.216.0/24|MD|ripencc|2003-01-24|IDK-NETWORK, MD
217.20.130.72|5588|217.20.128.0/20|HU|ripencc|2000-09-25|GTSCE GTS Central Europe / Antel Germany, CZ
217.23.8.80|49981|217.23.0.0/20|NL|ripencc|2009-02-04|WORLDSTREAM, NL
24.102.91.203|12271|24.102.64.0/18|US|arin|2014-02-10|TWC-12271-NYC, US
24.132.27.107|33915|24.132.0.0/17|NL|ripencc|1997-10-13|TNF-AS, NL
24.84.207.249|6327|24.84.204.0/22|CA|arin|2001-07-12|SHAW, CA
3.112.173.12|16509|3.112.0.0/14|US|arin|2017-12-20|AMAZON-02, US
3.16.37.222|16509|3.16.0.0/14|US|arin|2017-12-20|AMAZON-02, US
3.224.147.129|14618|3.224.0.0/12|US|arin|2018-06-25|AMAZON-AES, US
31.16.176.69|3209|31.16.0.0/14|DE|ripencc|2011-03-24|VODANET International IP-Backbone of Vodafone, DE
31.171.251.35|50837|31.171.251.0/24|CH|ripencc|2011-04-04|CLOUDSIGMA-AS, CH
34.102.80.13|15169|34.100.0.0/14|US|arin|2018-09-28|GOOGLE, US
34.64.109.126|139070|34.64.0.0/16|US|arin|2018-09-28|GOOGLE-AS-AP Google Asia Pacific Pte. Ltd., SG
34.64.137.48|139070|34.64.0.0/16|US|arin|2018-09-28|GOOGLE-AS-AP Google Asia Pacific Pte. Ltd., SG
34.64.138.114|139070|34.64.0.0/16|US|arin|2018-09-28|GOOGLE-AS-AP Google Asia Pacific Pte. Ltd., SG
34.64.150.100|139070|34.64.0.0/16|US|arin|2018-09-28|GOOGLE-AS-AP Google Asia Pacific Pte. Ltd., SG
34.64.199.161|139070|34.64.0.0/16|US|arin|2018-09-28|GOOGLE-AS-AP Google Asia Pacific Pte. Ltd., SG
34.97.40.102|15169|34.97.0.0/17|US|arin|2018-09-28|GOOGLE, US
35.200.95.220|15169|35.200.0.0/14|US|arin|2017-03-21|GOOGLE, US
37.102.50.5|207427|37.102.48.0/22|IT|ripencc|2012-02-01|GOHOSTED Gohosted.eu - Cheap VPS hosting, GB
45.129.180.214|197540|45.129.180.0/22|DE|ripencc|2019-07-16|NETCUP-AS netcup GmbH, DE
45.78.129.145|11698|45.78.128.0/20|US|arin|2015-05-26|WIATEL, US
46.175.178.3|56427|46.175.176.0/21|CZ|ripencc|2011-02-17|ASHRADIL, CZ
46.188.44.82|8334|46.188.0.0/17|RU|ripencc|2010-11-24|CO-2COM-AS Moscow, RU
46.20.2.222|43260|46.20.2.0/24|TR|ripencc|2010-07-22|AS43260, TR
5.128.87.126|31200|5.128.0.0/16|RU|ripencc|2012-06-29|NTK IPv6 customers, RU
5.188.56.59|49505|5.188.56.0/22|RU|ripencc|2012-08-09|SELECTEL, RU
5.196.69.107|16276|5.196.0.0/16|FR|ripencc|2012-08-23|OVH, FR
5.196.81.99|16276|5.196.0.0/16|FR|ripencc|2012-08-23|OVH, FR
5.9.22.98|24940|5.9.0.0/16|DE|ripencc|2012-04-25|HETZNER-AS, DE
54.187.117.98|16509|54.186.0.0/15|US|arin|2014-10-23|AMAZON-02, US
54.78.234.202|16509|54.78.0.0/16|US|arin|2014-06-20|AMAZON-02, US
62.212.83.41|60781|62.212.64.0/19|NL|ripencc|2000-06-22|LEASEWEB-NL-AMS-01 Netherlands, NL
62.42.54.160|6739|62.42.0.0/16|ES|ripencc|2000-05-03|ONO-AS Cableuropa - ONO, ES
63.247.147.166|30221|63.247.144.0/20|US|arin|2007-04-11|T3COM, US
64.33.68.176|11232|64.33.64.0/18|US|arin|2016-12-05|MIDCO-NET, US
66.49.193.206|33139|66.49.193.0/24|CA|arin|2004-02-10|CANACA-210, CA
66.96.199.249|56300|66.96.199.0/24|SG|apnic|2001-11-01|MYREPUBLIC-SG MyRepublic Ltd., SG
71.212.136.6|209|71.212.0.0/16|US|arin|2005-05-06|CENTURYLINK-US-LEGACY-QWEST, US
72.218.163.249|22773|72.218.0.0/16|US|arin|2005-08-03|ASN-CXA-ALL-CCI-22773-RDC, US
72.46.131.18|36114|72.46.128.0/22|US|arin|2006-08-30|VERSAWEB-ASN, US
73.119.229.229|7922|73.0.0.0/8|US|arin|2005-04-19|COMCAST-7922, US
73.92.179.203|7922|73.0.0.0/8|US|arin|2005-04-19|COMCAST-7922, US
74.213.232.237|14978|74.213.232.0/24|US|arin|2008-05-01|CSSBB, US
74.73.158.25|12271|74.72.0.0/15|US|arin|2006-03-27|TWC-12271-NYC, US
78.72.3.85|3301|78.64.0.0/12|SE|ripencc|2007-03-09|TELIANET-SWEDEN Telia Company, SE
78.94.31.171|3209|78.94.0.0/17|DE|ripencc|2007-07-20|VODANET International IP-Backbone of Vodafone, DE
8.209.78.101|45102|8.209.64.0/19|SG|apnic|1992-12-01|CNNIC-ALIBABA-US-NET-AP Alibaba (US) Technology Co., Ltd., CN
81.0.198.25|21430|81.0.198.0/24|CZ|ripencc|2001-12-14|WIA-AS, CZ
84.104.14.162|33915|84.104.0.0/15|NL|ripencc|2004-04-26|TNF-AS, NL
84.213.215.135|41164|84.213.128.0/17|NO|ripencc|2005-07-07|GET-NO GET Norway, NO
85.212.237.98|12312|85.212.192.0/18|DE|ripencc|2005-02-22|ECOTEL, DE
86.105.72.229|12302|86.105.72.0/21|RO|ripencc|2005-04-18|VODAFONE_RO Charles de Gaulle nr.15, RO
86.82.214.134|1136|86.80.0.0/12|NL|ripencc|2005-03-23|KPN KPN National, NL
87.157.228.254|3320|87.128.0.0/10|DE|ripencc|2005-05-03|DTAG Internet service provider operations, DE
89.248.240.57|41670|89.248.240.0/20|CZ|ripencc|2006-07-14|HKFREE-AS, CZ
92.53.101.168|49505|92.53.101.0/24|RU|ripencc|2008-02-15|SELECTEL, RU
93.153.5.234|13036|93.153.0.0/17|CZ|ripencc|2008-05-07|TMOBILE-, CZ
93.190.140.83|49981|93.190.140.0/22|NL|ripencc|2008-05-16|WORLDSTREAM, NL
94.19.7.55|35807|94.19.0.0/16|RU|ripencc|2008-07-03|SKYNET-SPB-AS, RU
94.23.154.171|16276|94.23.0.0/16|FR|ripencc|2008-07-15|OVH, FR
95.164.65.194|39762|95.164.65.0/24|GI|ripencc|2008-12-31|VAK Poltava, Ukraine, UA
95.56.211.115|9198|95.56.208.0/20|KZ|ripencc|2008-09-23|KAZTELECOM-AS, KZ
95.85.254.28|43708|95.85.192.0/18|CZ|ripencc|2008-12-31|METRONET, CZ
98.41.45.41|7922|98.32.0.0/11|US|arin|2007-06-06|COMCAST-7922, US
