# bitcoin dns seeds and whois results
IP Address|ASN|BGP Prefix|CC|Registry|Allocated|AS Name
104.248.157.169|14061|104.248.144.0/20|US|arin|2018-08-06|DIGITALOCEAN-ASN, US
107.150.41.179|33387|107.150.32.0/19|US|arin|2013-12-03|NOCIX, US
111.68.15.226|45753|111.68.15.0/24|HK|apnic|2009-06-09|NETSEC-HK NETSEC, HK
115.68.73.150|38700|115.68.0.0/17|KR|apnic|2008-07-15|SMILESERV-AS-KR SMILESERV, KR
116.203.230.250|24940|116.203.0.0/16|DE|ripencc|2011-01-17|HETZNER-AS, DE
120.79.87.220|37963|120.79.0.0/16|CN|apnic|2008-03-27|CNNIC-ALIBABA-CN-NET-AP Hangzhou Alibaba Advertising Co.,Ltd., CN
13.124.74.157|16509|13.124.0.0/16|US|arin|2016-08-09|AMAZON-02, US
13.228.25.171|16509|13.228.0.0/15|US|arin|2019-10-01|AMAZON-02, US
13.239.12.139|16509|13.236.0.0/14|US|arin|2019-10-01|AMAZON-02, US
135.0.225.179|54614|135.0.224.0/21|CA|arin|2012-03-19|CIKTELECOM-CABLE, CA
135.181.0.151|24940|135.181.0.0/16|DE|ripencc|1996-04-30|HETZNER-AS, DE
142.54.194.104|3855|142.54.194.0/24|BM|arin|2015-03-18|LOGIC-3855, BM
142.93.89.38|14061|142.93.80.0/20|US|arin|2018-07-12|DIGITALOCEAN-ASN, US
144.76.137.181|24940|144.76.0.0/16|DE|ripencc|1990-11-16|HETZNER-AS, DE
144.76.78.232|24940|144.76.0.0/16|DE|ripencc|1990-11-16|HETZNER-AS, DE
145.90.90.231|1103|145.90.0.0/16|NL|ripencc|1993-09-01|SURFNET-NL SURFnet, The Netherlands, NL
154.65.14.19|37628|154.65.12.0/22|ZA|afrinic|2013-09-26|KAB-Tech-AS, ZA
159.100.248.234|61098|159.100.248.0/21|CH|ripencc|1992-03-31|EXOSCALE, CH
159.69.115.164|24940|159.69.0.0/16|DE|ripencc|1992-03-13|HETZNER-AS, DE
160.16.110.6|9370|160.16.0.0/17|JP|apnic|1992-06-10|SAKURA-B SAKURA Internet Inc., JP
162.209.1.233|19994|162.209.0.0/18|US|arin|2013-03-26|RACKSPACE, US
164.153.241.210|16570|164.153.241.0/24|US|arin|2019-02-14|TELOIP-SW-ASN, CA
165.22.226.5|14061|165.22.224.0/20|US|arin|2018-10-16|DIGITALOCEAN-ASN, US
168.119.153.10|24940|168.119.0.0/16|DE|ripencc|1994-04-05|HETZNER-AS, DE
172.114.161.190|20001|172.112.0.0/13|US|arin|2015-06-19|TWC-20001-PACWEST, US
173.11.150.73|7922|173.8.0.0/13|US|arin|2008-05-05|COMCAST-7922, US
174.3.197.218|6327|174.3.196.0/22|CA|arin|2008-11-19|SHAW, CA
176.104.25.140|41435|176.104.0.0/18|UA|ripencc|2011-12-20|UNDERNET-AS1, UA
176.9.63.112|24940|176.9.0.0/16|DE|ripencc|2011-05-17|HETZNER-AS, DE
178.238.237.56|51167|178.238.236.0/23|DE|ripencc|2010-07-28|CONTABO, DE
178.62.2.80|14061|178.62.0.0/18|US|ripencc|2010-02-26|DIGITALOCEAN-ASN, US
178.79.83.93|3212|178.79.64.0/18|SI|ripencc|2010-05-07|TELEMACH Broadband Access & Carrier Services, SI
18.228.144.20|16509|18.228.0.0/16|US|arin|2019-10-07|AMAZON-02, US
183.88.230.95|45629|183.88.0.0/16|TH|apnic|2009-11-13|JASTEL-NETWORK-TH-AP JasTel Network International Gateway, TH
185.181.61.140|56655|185.181.60.0/22|NO|ripencc|2016-12-08|TERRAHOST, NO
185.19.29.110|61098|185.19.28.0/22|CH|ripencc|2013-02-19|EXOSCALE, CH
185.49.169.139|201746|185.49.169.0/24|ES|ripencc|2014-03-06|OLIVENET-AS, ES
186.32.212.112|262197|186.32.212.0/23|CR|lacnic|2011-06-24|MILLICOM CABLE COSTA RICA S.A., CR
187.139.116.195|8151|187.139.112.0/21|MX|lacnic|2007-12-06|Uninet S.A. de C.V., MX
188.155.218.95|6730|188.154.0.0/15|CH|ripencc|2009-05-08|SUNRISE, CH
188.6.230.11|5483|188.6.0.0/16|HU|ripencc|2011-09-30|MAGYAR-TELEKOM-MAIN-AS Magyar Telekom Nyrt., HU
190.145.127.254|14080|190.145.96.0/19|CO|lacnic|2007-01-11|Telmex Colombia S.A., CO
192.3.11.20|36352|192.3.0.0/20|US|arin|2013-06-07|AS-COLOCROSSING, US
194.26.29.152|206728|194.26.29.0/24|RU|ripencc|2019-11-20|MEDIALAND-AS, RU
197.248.59.90|37061|197.248.59.0/24|KE|afrinic|2011-05-05|Safaricom, KE
198.27.67.60|16276|198.27.64.0/18|CA|arin|2012-08-28|OVH, FR
2.29.229.68|12576|2.29.0.0/16|GB|ripencc|2010-09-21|EE Ltd, GB
2.36.229.123|30722|2.36.0.0/14|IT|ripencc|2010-04-29|VODAFONE-IT-ASN, IT
201.191.6.103|11830|201.191.4.0/22|CR|lacnic|2008-09-15|Instituto Costarricense de Electricidad y Telecom., CR
202.73.14.205|55720|202.73.14.0/24|MY|apnic|2004-12-03|GIGABIT-MY Gigabit Hosting Sdn Bhd, MY
209.188.18.218|20454|209.188.0.0/19|US|arin|2004-05-18|SSASN2, US
209.97.189.48|14061|209.97.176.0/20|US|arin|1997-07-03|DIGITALOCEAN-ASN, US
210.187.236.219|4788|210.187.224.0/19|MY|apnic|2001-08-20|TMNET-AS-AP TM Net, Internet Service Provider, MY
210.246.63.55|9500|210.246.0.0/18|NZ|apnic|2002-10-24|VODAFONE-TRANSIT-AS Vodafone NZ Ltd., NZ
211.75.236.78|3462|211.75.0.0/16|TW|apnic|1999-11-23|HINET Data Communication Business Group, TW
212.89.173.216|49864|212.89.160.0/19|AT|ripencc|2009-09-28|ECSNET-AS, AT
213.202.35.178|21466|213.202.32.0/21|CH|ripencc|2001-12-12|ASQUICKNET Kabelfernsehn Boedeli in Interlaken (Switzerland), CH
216.213.116.81|46719|216.213.112.0/20|US|arin|2017-12-28|COMCELL4236207, US
216.38.129.164|6994|216.38.128.0/19|US|arin|1998-08-12|FASTMETRICS, US
217.119.121.123|31117|217.119.112.0/20|SK|ripencc|2004-03-02|ENERGOTEL-AS, SK
221.141.26.143|9318|221.140.0.0/14|KR|apnic|2003-05-30|SKB-AS SK Broadband Co Ltd, KR
24.66.42.105|6327|24.66.40.0/22|CA|arin|1996-06-03|SHAW, CA
27.109.153.99|4609|27.109.128.0/19|MO|apnic|2010-06-10|CTM-MO Companhia de Telecomunicacoes de Macau SARL, MO
27.255.79.116|45382|27.255.79.0/24|KR|apnic|2010-06-22|EHOSTIDC-AS-KR EHOSTICT, KR
31.31.79.166|197019|31.31.72.0/21|CZ|ripencc|2011-03-17|WEDOS, CZ
34.106.233.250|15169|34.104.0.0/14|US|arin|2018-09-28|GOOGLE, US
34.249.184.215|16509|34.248.0.0/13|US|arin|2016-09-12|AMAZON-02, US
34.254.224.123|16509|34.248.0.0/13|US|arin|2016-09-12|AMAZON-02, US
34.94.201.103|15169|34.92.0.0/14|US|arin|2018-09-28|GOOGLE, US
34.94.255.160|15169|34.92.0.0/14|US|arin|2018-09-28|GOOGLE, US
35.203.4.36|15169|35.200.0.0/14|US|arin|2017-03-21|GOOGLE, US
37.138.242.223|9145|37.138.0.0/16|DE|ripencc|2012-02-23|EWETEL Cloppenburger Strasse 310, DE
37.187.5.202|16276|37.187.0.0/16|FR|ripencc|2012-03-20|OVH, FR
38.102.69.70|40470|38.102.69.0/24|US|arin|1991-04-16|PROTECTED-, CA
38.135.47.15|394737|38.135.47.0/24|US|arin|1991-04-16|ANTS-TECHNOLOGY, US
45.33.71.148|63949|45.33.64.0/19|US|arin|2015-03-20|LINODE-AP Linode, LLC, US
45.77.122.231|20473|45.77.120.0/21|US|arin|2015-04-24|AS-CHOOPA, US
45.85.48.58|208016|45.85.48.0/22|DE|ripencc|2019-06-04|TINC-AS, DE
46.101.79.8|14061|46.101.72.0/21|US|ripencc|2010-06-24|DIGITALOCEAN-ASN, US
46.20.2.222|43260|46.20.2.0/24|TR|ripencc|2010-07-22|AS43260, TR
46.4.104.180|24940|46.4.0.0/16|DE|ripencc|2010-08-19|HETZNER-AS, DE
47.117.139.164|37963|47.117.128.0/17|CN|apnic|1989-01-06|CNNIC-ALIBABA-CN-NET-AP Hangzhou Alibaba Advertising Co.,Ltd., CN
5.9.154.231|24940|5.9.0.0/16|DE|ripencc|2012-04-25|HETZNER-AS, DE
5.9.158.123|24940|5.9.0.0/16|DE|ripencc|2012-04-25|HETZNER-AS, DE
5.9.197.171|24940|5.9.0.0/16|DE|ripencc|2012-04-25|HETZNER-AS, DE
5.9.225.134|24940|5.9.0.0/16|DE|ripencc|2012-04-25|HETZNER-AS, DE
50.2.13.164|62904|50.2.12.0/23|US|arin|2010-06-25|EONIX-COMMUNICATIONS-ASBLOCK-62904, US
52.194.211.45|16509|52.194.0.0/15|US|arin|2015-09-02|AMAZON-02, US
54.37.253.178|16276|54.37.0.0/16|FR|ripencc|1992-03-17|OVH, FR
59.167.155.59|4739|59.167.0.0/16|AU|apnic|2005-09-14|INTERNODE-AS Internode Pty Ltd, AU
62.250.139.138|50266|62.250.128.0/17|NL|ripencc|2000-11-07|TMOBILE-THUIS, NL
64.187.175.226|54858|64.187.160.0/20|US|arin|2012-12-06|AS-SBI, US
64.250.112.70|23367|64.250.112.0/20|US|arin|2010-11-17|GENADAP, US
64.98.72.92|32133|64.98.64.0/20|CA|arin|2000-05-18|AS-TING-BACKBONE, US
66.165.95.169|7393|66.165.64.0/18|US|arin|2002-07-30|CYBERCON, US
69.13.39.34|54489|69.13.0.0/16|US|arin|2002-12-04|CORESPACE-DAL, US
71.212.148.155|209|71.212.0.0/16|US|arin|2005-05-06|CENTURYLINK-US-LEGACY-QWEST, US
73.207.112.3|7922|73.0.0.0/8|US|arin|2005-04-19|COMCAST-7922, US
79.169.122.193|2860|79.169.64.0/18|PT|ripencc|2007-09-05|NOS_COMUNICACOES, PT
79.77.182.183|9105|79.76.0.0/15|GB|ripencc|2007-06-19|TISCALI-UK TalkTalk Communications Limited, GB
81.70.47.243|45090|81.70.0.0/18|CN|apnic|2002-01-11|CNNIC-TENCENT-NET-AP Shenzhen Tencent Computer Systems Company Limited, CN
82.118.20.37|204957|82.118.20.0/22|UA|ripencc|2011-08-30|GREENFLOID-AS, BG
84.214.83.11|41164|84.214.0.0/17|NO|ripencc|2005-07-07|GET-NO GET Norway, NO
84.38.3.249|196691|84.38.0.0/22|RU|ripencc|2012-05-31|GET-NET-AS, RU
85.175.97.16|25490|85.175.96.0/22|RU|ripencc|2004-12-22|STC-AS, RU
85.208.71.24|42275|85.208.71.0/24|FR|ripencc|2019-02-21|THREEFOURTEEN, FR
85.212.237.98|12312|85.212.192.0/18|DE|ripencc|2005-02-22|ECOTEL, DE
85.214.148.143|6724|85.214.0.0/15|DE|ripencc|2005-02-24|STRATO STRATO AG, DE
88.100.198.253|5610|88.100.0.0/15|CZ|ripencc|2005-10-04|O2-CZECH-REPUBLIC, CZ
88.212.171.62|56329|88.212.168.0/21|GB|ripencc|2005-12-15|GIGACLEAR, GB
88.8.88.5|3352|88.8.0.0/16|ES|ripencc|2005-07-13|TELEFONICA_DE_ESPANA, ES
88.82.181.44|39178|88.82.180.0/22|RU|ripencc|2005-12-22|OPTILINK-AS, RU
93.126.126.51|35530|93.126.64.0/18|UA|ripencc|2008-08-04|PROLINE, UA
93.180.178.213|30793|93.180.160.0/19|PL|ripencc|2012-09-06|ISTS-, PL
93.237.66.67|3320|93.192.0.0/10|DE|ripencc|2008-02-12|DTAG Internet service provider operations, DE
94.112.132.191|16019|94.112.0.0/16|CZ|ripencc|2008-07-09|VODAFONE-CZ-AS, CZ
95.211.212.131|60781|95.211.0.0/16|NL|ripencc|2009-02-05|LEASEWEB-NL-AMS-01 Netherlands, NL
98.17.20.170|7029|98.16.0.0/13|US|arin|2007-02-05|WINDSTREAM, US
99.28.40.173|7018|99.16.0.0/12|US|arin|2008-02-25|ATT-INTERNET4, US
