# bitcoin dns seeds and whois results
IP Address|ASN|BGP Prefix|CC|Registry|Allocated|AS Name
100.8.19.20|701|100.8.0.0/16|US|arin|2010-12-28|UUNET, US
103.99.168.150|54415|103.99.168.0/24|JP|apnic|2017-08-28|WIZ-JP-AS-AP WIZ K.K., JP
104.218.170.84|3855|104.218.170.0/24|BM|arin|2014-10-07|LOGIC-3855, BM
107.181.189.34|46562|107.181.189.0/24|US|arin|2014-02-14|PERFORMIVE, US
108.4.213.39|701|108.4.192.0/18|US|arin|2009-06-05|UUNET, US
109.207.79.248|44709|109.207.79.0/24|IL|ripencc|2018-08-30|CLOUDWEBMANAGE-, IL
111.220.71.156|9443|111.220.0.0/16|AU|apnic|2009-07-10|VOCUS-RETAIL-AU Vocus Retail, AU
118.189.187.219|4773|118.189.176.0/20|SG|apnic|2007-10-19|MOBILEONELTD-AS-AP MobileOne Ltd. Mobile/Internet Service Provider Singapore, SG
120.24.70.214|37963|120.24.0.0/16|CN|apnic|2008-03-12|CNNIC-ALIBABA-CN-NET-AP Hangzhou Alibaba Advertising Co.,Ltd., CN
123.191.146.172|4837|123.188.0.0/14|CN|apnic|2007-03-05|CHINA169-BACKBONE CHINA UNICOM China169 Backbone, CN
13.48.45.12|16509|13.48.0.0/15|US|arin|2020-08-05|AMAZON-02, US
138.229.26.42|22423|138.229.16.0/20|CA|arin|2014-05-06|ALTIMA-TELECOM, CA
138.68.31.242|14061|138.68.16.0/20|US|arin|2016-01-26|DIGITALOCEAN-ASN, US
139.159.152.237|55990|139.159.144.0/20|CN|apnic|2011-03-09|HWCSNET Huawei Cloud Service data center, CN
153.92.93.114|41998|153.92.80.0/20|DE|ripencc|1991-09-23|NETCOMBW-AS, DE
157.175.40.167|16509|157.175.0.0/16|US|arin|2017-12-28|AMAZON-02, US
158.58.188.37|57497|158.58.188.0/24|IR|ripencc|2011-11-11|FARASOSAMANEHPASARGAD, IR
158.69.79.136|16276|158.69.0.0/16|CA|arin|2015-06-15|OVH, FR
161.97.112.247|51167|161.97.112.0/23|DE|ripencc|1992-06-23|CONTABO, DE
162.214.103.187|46606|162.214.103.0/24|US|arin|2013-05-22|UNIFIEDLAYER-AS-1, US
165.73.62.31|37611|165.73.0.0/17|ZA|afrinic|2017-06-02|Afrihost, ZA
168.119.172.105|24940|168.119.0.0/16|DE|ripencc|1994-04-05|HETZNER-AS, DE
170.250.84.130|23089|170.250.0.0/17|US|arin|2015-11-02|HOTWIRE-COMMUNICATIONS, US
173.212.242.144|51167|173.212.240.0/21|DE|ripencc|2009-10-26|CONTABO, DE
173.54.122.6|701|173.54.0.0/16|US|arin|2008-10-09|UUNET, US
174.115.197.190|812|174.115.192.0/18|CA|arin|2009-03-04|ROGERS-COMMUNICATIONS, CA
176.9.8.216|24940|176.9.0.0/16|DE|ripencc|2011-05-17|HETZNER-AS, DE
178.79.83.93|3212|178.79.64.0/18|SI|ripencc|2010-05-07|TELEMACH Broadband Access & Carrier Services, SI
18.183.205.148|16509|18.183.0.0/16|US|arin|2019-10-07|AMAZON-02, US
181.117.128.4|11664|181.117.128.0/21|AR|lacnic|2013-02-04|Techtel LMDS Comunicaciones Interactivas S.A., AR
183.135.107.113|4134|183.128.0.0/11|CN|apnic|2009-11-04|CHINANET-BACKBONE No.31,Jin-rong Street, CN
185.141.60.36|44901|185.141.60.0/24|BG|ripencc|2018-02-23|BELCLOUD, BG
185.85.3.140|20546|185.85.3.0/24|DE|ripencc|2015-01-21|SOPRADO-ANY, DE
186.176.100.59|262197|186.176.100.0/23|CR|lacnic|2010-08-26|MILLICOM CABLE COSTA RICA S.A., CR
188.244.4.78|39709|188.244.0.0/20|RU|ripencc|2009-07-07|EXTREME-AS, RU
190.2.130.44|49981|190.2.128.0/20|CW|lacnic|2006-04-28|WORLDSTREAM, NL
193.161.86.133|51248|193.161.84.0/22|CZ|ripencc|2010-06-15|HOST-TELECOM, CZ
193.198.68.178|2108|193.198.0.0/16|HR|ripencc|1993-09-01|CARNET-AS J.Marohnica 5, 10000 Zagreb, HR
193.210.231.219|1759|193.208.0.0/14|FI|ripencc|1993-12-20|TSF-IP-CORE Telia Finland Oyj, FI
194.135.135.69|25227|194.135.135.0/24|RU|ripencc|1995-02-06|ASN-AVANTEL-MSK Located in Moscow, Russia., RU
194.14.246.50|50066|194.14.246.0/24|SE|ripencc|1993-12-09|SRSTUBES-AS, SE
198.100.138.218|13692|198.100.136.0/21|US|arin|2012-09-26|DFN-ASN-1, US
198.84.237.70|5645|198.84.128.0/17|CA|arin|2012-07-23|TEKSAVVY, CA
209.204.20.46|395439|209.204.20.0/22|US|arin|2018-06-13|JECNET, US
211.251.250.7|4766|211.250.0.0/15|KR|apnic|2000-09-08|KIXS-AS-KR Korea Telecom, KR
213.178.28.118|29413|213.178.16.0/20|DE|ripencc|1999-12-15|KOMRO-AS Komro Telekommunikations GmbH, DE
213.202.35.178|21466|213.202.32.0/21|CH|ripencc|2001-12-12|ASQUICKNET Kabelfernsehn Boedeli in Interlaken (Switzerland), CH
216.213.116.81|46719|216.213.112.0/20|US|arin|2017-12-28|COMCELL4236207, US
24.217.251.48|20115|24.217.0.0/16|US|arin|1999-02-22|CHARTER-20115, US
3.126.184.249|16509|3.124.0.0/14|US|arin|2017-12-20|AMAZON-02, US
3.128.212.89|16509|3.128.0.0/15|US|arin|2018-06-25|AMAZON-02, US
3.15.198.150|16509|3.14.0.0/15|US|arin|2017-12-20|AMAZON-02, US
3.248.223.135|16509|3.248.0.0/13|US|arin|2018-06-25|AMAZON-02, US
3.35.166.20|16509|3.34.0.0/15|US|arin|2017-12-20|AMAZON-02, US
3.87.158.26|14618|3.80.0.0/12|US|arin|2017-12-20|AMAZON-AES, US
3.96.126.235|16509|3.96.0.0/15|US|arin|2017-12-20|AMAZON-02, US
31.164.229.141|6730|31.164.0.0/15|CH|ripencc|2011-02-23|SUNRISE, CH
31.42.184.85|30860|31.42.184.0/23|UA|ripencc|2011-02-23|YURTEH-AS, UA
31.47.202.112|34385|31.47.200.0/21|SE|ripencc|2011-03-22|TRIPNET, SE
34.210.198.230|16509|34.208.0.0/12|US|arin|2016-09-12|AMAZON-02, US
34.244.102.121|16509|34.240.0.0/13|US|arin|2016-09-12|AMAZON-02, US
34.70.138.19|15169|34.68.0.0/14|US|arin|2018-09-28|GOOGLE, US
34.80.137.236|15169|34.80.0.0/14|US|arin|2018-09-28|GOOGLE, US
34.87.112.13|15169|34.84.0.0/14|US|arin|2018-09-28|GOOGLE, US
34.89.86.67|15169|34.88.0.0/14|US|arin|2018-09-28|GOOGLE, US
34.93.222.205|15169|34.92.0.0/14|US|arin|2018-09-28|GOOGLE, US
34.96.185.33|15169|34.96.128.0/17|US|arin|2018-09-28|GOOGLE, US
34.97.40.102|15169|34.97.0.0/17|US|arin|2018-09-28|GOOGLE, US
35.209.182.232|15169|35.208.0.0/15|US|arin|2017-09-29|GOOGLE, US
35.241.148.59|15169|35.240.0.0/14|US|arin|2017-09-29|GOOGLE, US
37.138.211.215|9145|37.138.0.0/16|DE|ripencc|2012-02-23|EWETEL Cloppenburger Strasse 310, DE
37.187.121.67|16276|37.187.0.0/16|FR|ripencc|2012-03-20|OVH, FR
37.230.41.22|16097|37.230.40.0/21|DE|ripencc|2012-04-12|HLKOMM 04107 Leipzig, DE
45.183.140.233|264824|45.183.140.0/24|EC|lacnic|2019-09-25|COMPANIA ELECTROMECANICOS PARA EL DESARROLLO CSED SA, EC
46.101.242.237|14061|46.101.128.0/17|US|ripencc|2010-06-24|DIGITALOCEAN-ASN, US
46.4.97.19|24940|46.4.0.0/16|DE|ripencc|2010-08-19|HETZNER-AS, DE
46.59.64.170|8473|46.59.0.0/17|SE|ripencc|2010-10-19|BAHNHOF http://www.bahnhof.net/, SE
47.26.14.216|20115|47.26.0.0/17|US|arin|2017-11-27|CHARTER-20115, US
5.200.47.22|48096|5.200.47.0/24|RU|ripencc|2012-08-30|ITGRAD, RU
5.79.71.221|60781|5.79.64.0/18|NL|ripencc|2012-06-14|LEASEWEB-NL-AMS-01 Netherlands, NL
5.9.8.28|24940|5.9.0.0/16|DE|ripencc|2012-04-25|HETZNER-AS, DE
50.2.13.164|62904|50.2.12.0/23|US|arin|2010-06-25|EONIX-COMMUNICATIONS-ASBLOCK-62904, US
51.15.23.166|12876|51.15.0.0/17|FR|ripencc|1993-09-01|Online SAS, FR
51.174.206.76|29695|51.174.0.0/15|NO|ripencc|1993-09-01|ALTIBOX_AS Norway, NO
54.168.144.78|16509|54.168.0.0/16|US|arin|2014-10-23|AMAZON-02, US
66.115.219.87|13576|66.115.192.0/18|US|arin|2002-12-20|SDNW-13576, US
68.183.75.251|14061|68.183.64.0/20|US|arin|2018-09-18|DIGITALOCEAN-ASN, US
68.43.133.71|7922|68.32.0.0/11|US|arin|2001-11-29|COMCAST-7922, US
70.15.194.32|3737|70.15.0.0/16|US|arin|2006-09-14|AS-PTD, US
71.89.209.212|20115|71.89.192.0/19|US|arin|2005-05-19|CHARTER-20115, US
72.192.162.178|22773|72.192.128.0/18|US|arin|2005-08-03|ASN-CXA-ALL-CCI-22773-RDC, US
74.98.242.97|701|74.98.192.0/18|US|arin|2009-01-26|UUNET, US
78.94.31.171|3209|78.94.0.0/17|DE|ripencc|2007-07-20|VODANET International IP-Backbone of Vodafone, DE
79.101.1.25|8400|79.101.0.0/16|RS|ripencc|2007-11-12|TELEKOM-AS, RS
80.100.128.128|3265|80.100.0.0/15|NL|ripencc|2001-07-16|XS4ALL-NL Amsterdam, NL
80.78.240.191|197695|80.78.240.0/24|RU|ripencc|2010-05-07|AS-REG, RU
81.245.96.36|5432|81.244.0.0/14|BE|ripencc|2002-11-29|PROXIMUS-ISP-AS, BE
82.194.104.246|8881|82.194.96.0/19|DE|ripencc|2003-10-17|VERSATEL, DE
83.150.56.145|8758|83.150.0.0/18|CH|ripencc|2004-03-16|IWAY, CH
83.69.106.133|29125|83.69.106.0/24|RU|ripencc|2004-05-26|TATINT-AS, RU
85.190.0.5|29686|85.190.0.0/19|DE|ripencc|2004-12-13|PROBENETWORKS-AS, DE
85.195.54.110|35706|85.195.0.0/18|SE|ripencc|2005-01-04|NAO, SE
85.214.118.71|6724|85.214.0.0/15|DE|ripencc|2005-02-24|STRATO STRATO AG, DE
85.93.96.18|34315|85.93.96.0/19|CZ|ripencc|2004-12-09|MAXNET-AS, CZ
86.139.27.203|2856|86.128.0.0/12|GB|ripencc|2005-02-07|BT-UK-AS BTnet UK Regional network, GB
88.82.181.44|39178|88.82.180.0/22|RU|ripencc|2005-12-22|OPTILINK-AS, RU
89.142.71.234|5603|89.142.64.0/18|SI|ripencc|2006-03-03|SIOL-NET Telekom Slovenije d.d., SI
91.115.39.191|8447|91.112.0.0/14|AT|ripencc|2006-09-04|A1TELEKOM-AT A1 Telekom Austria AG, AT
91.148.141.210|203380|91.148.141.0/24|BG|ripencc|2006-11-13|DAINTERNATIONALGROUP, GB
91.152.120.228|719|91.152.0.0/13|FI|ripencc|2006-09-06|ELISA-AS Helsinki, Finland, FI
91.224.20.71|60562|91.224.20.0/23|IR|ripencc|2019-10-03|BEHDASHT-IT, IR
91.228.152.252|44066|91.228.152.0/22|ES|ripencc|2011-06-01|DE-FIRSTCOLO www.first-colo.net, DE
94.114.158.146|3209|94.114.0.0/16|DE|ripencc|2008-07-09|VODANET International IP-Backbone of Vodafone, DE
95.214.53.154|201814|95.214.52.0/22|PL|ripencc|2018-12-21|PL-SKYTECH-AS, PL
95.82.176.138|31246|95.82.128.0/18|CZ|ripencc|2008-12-11|NETBOX-AS NETBOX Autonomous system, CZ
96.48.243.148|6327|96.48.240.0/22|CA|arin|2008-01-07|SHAW, CA
