# bitcoin dns seeds and whois results
IP Address|ASN|BGP Prefix|CC|Registry|Allocated|AS Name
103.14.244.190|24482|103.14.244.0/23|SG|apnic|2012-08-13|SGGS-AS-AP SG.GS, SG
103.9.174.70|55905|103.9.174.0/24|JP|apnic|2012-05-18|COMZNET2 TOP CLOUD Inc., JP
104.143.2.195|26863|104.143.2.0/23|US|arin|2020-10-07|GAMESERVERKINGS, US
104.171.242.116|26827|104.171.240.0/20|US|arin|2014-09-23|EPBTELECOM, US
105.233.37.163|36874|105.233.0.0/17|ZA|afrinic|2012-08-01|Cybersmart, ZA
106.70.58.26|4804|106.70.0.0/16|AU|apnic|2011-03-22|MPX-AS Microplex PTY LTD, AU
121.78.223.195|9286|121.78.192.0/18|KR|apnic|2006-06-20|KINXIDC-AS-KR KINX, KR
122.224.244.98|4134|122.224.0.0/12|CN|apnic|2006-11-16|CHINANET-BACKBONE No.31,Jin-rong Street, CN
13.245.4.171|16509|13.244.0.0/15|US|arin|2018-07-11|AMAZON-02, US
135.0.225.179|54614|135.0.224.0/21|CA|arin|2012-03-19|CIKTELECOM-CABLE, CA
135.181.221.56|24940|135.181.0.0/16|DE|ripencc|1996-04-30|HETZNER-AS, DE
136.243.146.74|24940|136.243.0.0/16|DE|ripencc|2004-04-14|HETZNER-AS, DE
136.243.50.164|24940|136.243.0.0/16|DE|ripencc|2004-04-14|HETZNER-AS, DE
138.43.233.57|394147|138.43.233.0/24|US|arin|2019-04-15|MVLINK, US
143.110.240.88|14061|143.110.240.0/20|US|arin|2020-01-17|DIGITALOCEAN-ASN, US
143.89.60.134|3363|143.89.0.0/16|HK|apnic|1990-09-07|HKUST-AS-HK Hong Kong University of Science and Technology, HK
144.76.2.87|24940|144.76.0.0/16|DE|ripencc|1990-11-16|HETZNER-AS, DE
147.229.146.52|197451|147.229.128.0/18|CZ|ripencc|1993-01-11|VUTBR-AS, CZ
148.69.222.213|12353|148.69.0.0/16|PT|ripencc|1991-04-11|VODAFONE-PT Vodafone Portugal, PT
159.65.187.247|14061|159.65.176.0/20|US|arin|2017-10-24|DIGITALOCEAN-ASN, US
162.0.220.202|22612|162.0.220.0/24|US|arin|2020-09-03|NAMECHEAP-NET, US
162.0.227.16|22612|162.0.227.0/24|US|arin|2020-04-03|NAMECHEAP-NET, US
165.227.180.166|14061|165.227.176.0/20|US|arin|2016-10-06|DIGITALOCEAN-ASN, US
176.212.185.153|56420|176.212.184.0/22|RU|ripencc|2011-09-28|RYAZAN-AS, RU
176.37.99.111|39608|176.37.0.0/16|UA|ripencc|2011-05-20|LANETUA-AS, UA
178.198.229.158|3303|178.198.0.0/15|CH|ripencc|2010-02-24|SWISSCOM Swisscom (Switzerland) Ltd, CH
178.63.242.43|24940|178.63.0.0/16|DE|ripencc|2010-03-02|HETZNER-AS, DE
178.79.83.93|3212|178.79.64.0/18|SI|ripencc|2010-05-07|TELEMACH Broadband Access & Carrier Services, SI
18.166.212.138|16509|18.166.0.0/15|US|arin|2019-10-07|AMAZON-02, US
18.197.34.112|16509|18.196.0.0/15|US|arin|2019-10-07|AMAZON-02, US
184.182.233.206|22773|184.182.233.0/24|US|arin|2010-05-14|ASN-CXA-ALL-CCI-22773-RDC, US
185.132.178.23|49981|185.132.176.0/22|NL|ripencc|2015-12-23|WORLDSTREAM, NL
185.17.112.17|61135|185.17.112.0/24|TR|ripencc|2013-01-29|COMNET-DATACENTER-ISTANBUL, TR
185.233.148.146|60118|185.233.148.0/22|RO|ripencc|2017-11-24|CYBERSMARTSOLUTIONS-AS, RO
185.25.48.7|61272|185.25.48.0/22|LT|ripencc|2013-04-29|IST-AS, LT
185.254.97.164|60548|185.254.96.0/22|DE|ripencc|2018-04-10|AVORO Avoro, DE
188.121.252.236|29075|188.121.224.0/19|FR|ripencc|2009-05-13|IELO IELO Main Network, FR
188.166.190.154|14061|188.166.176.0/20|US|ripencc|2009-06-05|DIGITALOCEAN-ASN, US
188.32.14.31|42610|188.32.0.0/16|RU|ripencc|2011-09-30|NCNET-AS, RU
190.162.176.54|22047|190.162.176.0/21|CL|lacnic|2008-09-09|VTR BANDA ANCHA S.A., CL
190.194.72.20|7303|190.194.0.0/15|AR|lacnic|2010-05-11|Telecom Argentina S.A., AR
194.49.60.74|12337|194.49.60.0/24|DE|ripencc|1994-03-29|NORIS-NETWORK IT Service Provider located in Nuernberg, Germany, DE
195.201.71.60|24940|195.201.0.0/16|DE|ripencc|1997-09-22|HETZNER-AS, DE
2.200.165.2|3209|2.200.0.0/14|DE|ripencc|2010-11-18|VODANET International IP-Backbone of Vodafone, DE
201.67.212.156|8167|201.67.192.0/18|BR|lacnic|2006-01-30|Brasil Telecom S/A - Filial Distrito Federal, BR
203.151.166.124|4618|203.151.160.0/19|TH|apnic|1997-07-01|INET-TH-AS Internet Thailand Company Limited, TH
205.178.41.124|6079|205.178.0.0/17|US|arin|1995-03-20|RCN-AS, US
206.81.96.62|8046|206.81.96.0/21|US|arin|1995-08-16|NAPANET, US
207.180.217.42|51167|207.180.216.0/23|DE|ripencc|1996-08-21|CONTABO, DE
207.254.73.148|395337|207.254.72.0/22|US|arin|2016-02-08|MACST-VEGAS, US
216.38.129.164|6994|216.38.128.0/19|US|arin|1998-08-12|FASTMETRICS, US
24.112.182.145|27364|24.112.160.0/19|US|arin|2008-10-27|ACS-INTERNET, US
24.230.133.253|11232|24.230.128.0/18|US|arin|2003-04-11|MIDCO-NET, US
24.34.61.18|7922|24.34.0.0/16|US|arin|2001-09-18|COMCAST-7922, US
3.220.203.233|14618|3.208.0.0/12|US|arin|2018-06-25|AMAZON-AES, US
31.13.10.129|197784|31.13.8.0/21|SE|ripencc|2011-04-18|EDGEIP-AS, SE
34.101.229.34|139190|34.101.0.0/16|US|arin|2018-09-28|GOOGLE-AS-AP Google Asia Pacific Pte. Ltd., SG
34.106.237.35|15169|34.104.0.0/14|US|arin|2018-09-28|GOOGLE, US
34.237.15.134|14618|34.224.0.0/12|US|arin|2016-09-12|AMAZON-AES, US
34.241.176.144|16509|34.240.0.0/13|US|arin|2016-09-12|AMAZON-02, US
34.80.224.42|15169|34.80.0.0/14|US|arin|2018-09-28|GOOGLE, US
34.95.17.184|15169|34.92.0.0/14|US|arin|2018-09-28|GOOGLE, US
35.221.158.174|15169|35.220.0.0/14|US|arin|2017-09-29|GOOGLE, US
35.244.103.242|15169|35.244.0.0/14|US|arin|2017-09-29|GOOGLE, US
37.140.47.221|8369|37.140.0.0/17|RU|ripencc|2012-02-29|INTERSVYAZ-AS 38-B, Komsomolsky prospekt, RU
37.220.109.238|47264|37.220.109.0/24|GB|ripencc|2012-04-03|LDEX, GB
42.98.245.98|4760|42.98.240.0/20|HK|apnic|2011-02-18|HKTIMS-AP HKT Limited, HK
45.92.33.4|9009|45.92.33.0/24|RO|ripencc|2019-07-01|M247, GB
46.105.99.204|16276|46.105.0.0/16|FR|ripencc|2010-11-29|OVH, FR
46.29.20.203|197226|46.29.16.0/21|PL|ripencc|2010-08-02|SPRINT-SDC, PL
47.108.165.147|37963|47.108.0.0/16|CN|apnic|1989-01-06|CNNIC-ALIBABA-CN-NET-AP Hangzhou Alibaba Advertising Co.,Ltd., CN
47.201.6.134|5650|47.200.0.0/14|US|arin|2015-08-28|FRONTIER-FRTR, US
47.242.87.227|45102|47.242.0.0/16|US|arin|2016-04-15|CNNIC-ALIBABA-US-NET-AP Alibaba (US) Technology Co., Ltd., CN
47.252.73.221|45102|47.252.64.0/18|US|arin|2016-04-15|CNNIC-ALIBABA-US-NET-AP Alibaba (US) Technology Co., Ltd., CN
47.252.80.85|45102|47.252.64.0/18|US|arin|2016-04-15|CNNIC-ALIBABA-US-NET-AP Alibaba (US) Technology Co., Ltd., CN
49.12.82.82|24940|49.12.0.0/16|DE|ripencc|2010-10-21|HETZNER-AS, DE
5.196.81.99|16276|5.196.0.0/16|FR|ripencc|2012-08-23|OVH, FR
5.196.92.183|16276|5.196.0.0/16|FR|ripencc|2012-08-23|OVH, FR
5.61.53.73|58061|5.61.52.0/22|GB|ripencc|2012-06-07|SCALAXY-AS, NL
50.53.250.162|27017|50.53.0.0/16|US|arin|2010-09-24|ZIPLY-FIBER-LEGACY-ASN, US
51.141.167.27|8075|51.140.0.0/14|GB|ripencc|1993-09-01|MICROSOFT-CORP-MSN-AS-BLOCK, US
51.15.165.15|12876|51.15.0.0/16|FR|ripencc|1993-09-01|Online SAS, FR
52.221.239.141|16509|52.220.0.0/15|US|arin|2015-09-02|AMAZON-02, US
54.176.63.16|16509|54.176.0.0/15|US|arin|2014-10-23|AMAZON-02, US
60.244.109.18|24154|60.244.96.0/19|TW|apnic|2005-01-21|APBT-AS-TW Asia Pacific Broadband Fixed Lines Co., Ltd., TW
62.210.131.148|12876|62.210.0.0/16|FR|ripencc|2000-10-26|Online SAS, FR
64.235.93.175|25769|64.235.64.0/19|US|arin|2002-09-11|GVTEL, US
66.206.13.51|29802|66.206.12.0/23|US|arin|2017-05-17|HVC-AS, US
66.29.128.19|22612|66.29.128.0/24|US|arin|2021-03-05|NAMECHEAP-NET, US
68.13.203.167|22773|68.13.192.0/19|US|arin|2001-11-12|ASN-CXA-ALL-CCI-22773-RDC, US
69.61.99.10|22653|69.61.0.0/17|US|arin|2003-07-08|GLOBALCOMPASS, US
77.38.42.145|3212|77.38.0.0/17|SI|ripencc|2007-03-22|TELEMACH Broadband Access & Carrier Services, SI
77.85.204.149|8866|77.85.204.0/24|BG|ripencc|2007-03-19|BTC-AS BULGARIA, BG
78.27.139.13|15683|78.27.128.0/18|UA|ripencc|2010-06-11|DOMASHKA-AS, UA
78.46.174.178|24940|78.46.0.0/15|DE|ripencc|2007-04-16|HETZNER-AS, DE
78.71.158.19|3301|78.64.0.0/12|SE|ripencc|2007-03-09|TELIANET-SWEDEN Telia Company, SE
81.170.143.123|8473|81.170.128.0/17|SE|ripencc|2003-05-12|BAHNHOF http://www.bahnhof.net/, SE
82.149.180.25|9145|82.149.160.0/19|DE|ripencc|2003-08-12|EWETEL Cloppenburger Strasse 310, DE
82.221.133.174|50613|82.221.128.0/19|IS|ripencc|2003-12-11|THORDC-AS, IS
82.65.42.106|12322|82.64.0.0/14|FR|ripencc|2003-04-03|PROXAD, FR
82.71.47.216|13037|82.68.0.0/14|GB|ripencc|2003-04-28|ZEN-AS Zen Internet - UK, GB
83.161.158.205|3265|83.160.0.0/14|NL|ripencc|2004-03-03|XS4ALL-NL Amsterdam, NL
83.240.15.151|31246|83.240.0.0/17|CZ|ripencc|2004-03-11|NETBOX-AS NETBOX Autonomous system, CZ
87.163.232.174|3320|87.128.0.0/10|DE|ripencc|2006-03-30|DTAG Internet service provider operations, DE
87.251.164.39|5563|87.251.164.0/22|RU|ripencc|2005-09-13|URAL Ural Regional Net, RU
88.215.113.20|35244|88.215.64.0/18|DE|ripencc|2006-01-24|KMS-DE_AS, DE
89.236.101.52|30798|89.236.64.0/18|FI|ripencc|2006-06-14|TNNET-AS TNNet Oy Main network, FI
89.239.99.102|31608|89.239.96.0/19|PL|ripencc|2007-05-25|GAWEX-AS Plac Wolnosci 11 Szczecinek, PL
89.56.21.82|207790|89.56.0.0/16|DE|ripencc|2005-11-23|SWNNMS, DE
90.12.77.206|3215|90.12.0.0/16|FR|ripencc|2006-03-02|France Telecom - Orange, FR
91.126.188.32|35699|91.126.188.0/23|ES|ripencc|2006-10-24|ADAMOEU-AS Adamo Telecom Iberia S.A., ES
91.42.70.31|3320|91.0.0.0/10|DE|ripencc|2006-07-03|DTAG Internet service provider operations, DE
93.115.28.70|16125|93.115.24.0/21|LT|ripencc|2007-12-21|CHERRYSERVERS1-AS, LT
94.23.214.15|16276|94.23.0.0/16|FR|ripencc|2008-07-15|OVH, FR
95.211.209.204|60781|95.211.0.0/16|NL|ripencc|2009-02-05|LEASEWEB-NL-AMS-01 Netherlands, NL
95.214.53.154|201814|95.214.52.0/22|PL|ripencc|2018-12-21|PL-SKYTECH-AS, PL
95.48.228.45|44814|95.48.224.0/20|PL|ripencc|2008-09-26|BTEL-BG-AS, BG
95.69.249.63|20850|95.69.248.0/22|UA|ripencc|2008-11-19|VALORKIEV-AS Kharkov, Ukraine, UA
97.120.232.182|209|97.120.0.0/16|US|arin|2007-12-19|CENTURYLINK-US-LEGACY-QWEST, US
