# bitcoin dns seeds and whois results
IP Address|ASN|BGP Prefix|CC|Registry|Allocated|AS Name
100.14.9.2|701|100.14.0.0/16|US|arin|2010-12-28|UUNET, US
103.231.191.7|17831|103.231.191.0/24|SG|apnic|2014-05-16|CENTERHOP-SG 8 Burn Road# 15-13, Trivex, SG
103.243.173.210|59210|103.243.173.0/24|SG|apnic|2013-10-15|PHOENIXNAP-AS-SG1 PhoenixNAP, SG
103.57.202.84|136209|103.57.202.0/24|HK|apnic|2015-05-20|BN-AS-KR Korea Fast Networks, KR
107.150.41.179|33387|107.150.32.0/19|US|arin|2013-12-03|NOCIX, US
109.115.103.65|30722|109.115.96.0/19|IT|ripencc|2009-06-12|VODAFONE-IT-ASN, IT
109.207.79.248|44709|109.207.79.0/24|IL|ripencc|2018-08-30|CLOUDWEBMANAGE-, IL
116.202.162.114|24940|116.202.0.0/16|DE|ripencc|2011-01-17|HETZNER-AS, DE
119.3.208.236|55990|119.3.192.0/19|CN|apnic|2007-11-26|HWCSNET Huawei Cloud Service data center, CN
128.199.10.155|14061|128.199.0.0/20|GB|ripencc|1999-04-12|DIGITALOCEAN-ASN, US
13.231.85.192|16509|13.230.0.0/15|US|arin|2019-10-01|AMAZON-02, US
131.94.129.191|3681|131.94.0.0/16|US|arin|1988-11-01|FIU, US
136.32.167.206|16591|136.32.160.0/20|US|arin|2015-10-06|GOOGLE-FIBER, US
138.201.33.156|24940|138.201.0.0/16|DE|ripencc|1990-05-23|HETZNER-AS, DE
141.164.36.74|20473|141.164.32.0/19|JP|apnic|1990-07-23|AS-CHOOPA, US
143.110.238.132|14061|143.110.224.0/20|US|arin|2020-01-17|DIGITALOCEAN-ASN, US
143.178.64.10|50266|143.178.0.0/17|NL|ripencc|1990-10-01|TMOBILE-THUIS, NL
146.0.130.117|6661|146.0.128.0/18|LU|ripencc|2011-07-07|EPT-LU Entreprise des P. et T. Luxembourg, LU
15.161.234.83|16509|15.161.0.0/16|US|arin|2019-12-26|AMAZON-02, US
15.236.224.135|16509|15.236.0.0/15|US|arin|2018-09-27|AMAZON-02, US
159.100.248.234|61098|159.100.248.0/21|CH|ripencc|1992-03-31|EXOSCALE, CH
161.35.15.187|14061|161.35.0.0/20|US|arin|2019-07-30|DIGITALOCEAN-ASN, US
161.97.129.105|51167|161.97.128.0/19|DE|ripencc|1992-06-23|CONTABO, DE
165.227.175.240|14061|165.227.160.0/20|US|arin|2016-10-06|DIGITALOCEAN-ASN, US
168.119.176.153|24940|168.119.0.0/16|DE|ripencc|1994-04-05|HETZNER-AS, DE
168.119.33.233|24940|168.119.0.0/16|DE|ripencc|1994-04-05|HETZNER-AS, DE
173.82.106.240|35916|173.82.0.0/16|US|arin|2008-11-14|MULTA-ASN1, US
176.36.37.21|39608|176.36.0.0/16|UA|ripencc|2011-05-20|LANETUA-AS, UA
178.185.27.112|12389|178.185.0.0/18|RU|ripencc|2010-02-03|ROSTELECOM-AS, RU
178.79.83.93|3212|178.79.64.0/18|SI|ripencc|2010-05-07|TELEMACH Broadband Access & Carrier Services, SI
18.229.148.50|16509|18.229.0.0/16|US|arin|2019-10-07|AMAZON-02, US
183.84.11.59|23724|183.84.0.0/15|CN|apnic|2009-11-12|CHINANET-IDC-BJ-AP IDC, China Telecommunications Corporation, CN
184.105.242.147|6939|184.104.0.0/15|US|arin|2010-05-10|HURRICANE, US
185.165.243.76|49981|185.165.240.0/22|NL|ripencc|2016-08-31|WORLDSTREAM, NL
185.233.148.146|60118|185.233.148.0/22|RO|ripencc|2017-11-24|CYBERSMARTSOLUTIONS-AS, RO
186.249.217.25|263569|186.249.216.0/22|BR|lacnic|2013-08-09|DIRECT WIFI TELECOM LTDA. ME, BR
188.134.5.135|41733|188.134.0.0/17|RU|ripencc|2009-04-27|ZTELECOM-AS, RU
188.154.12.104|6730|188.154.0.0/15|CH|ripencc|2009-05-08|SUNRISE, CH
188.155.218.95|6730|188.154.0.0/15|CH|ripencc|2009-05-08|SUNRISE, CH
190.105.164.11|52290|190.105.164.0/22|AR|lacnic|2010-11-15|PCCP S.A., AR
190.145.127.254|14080|190.145.96.0/19|CO|lacnic|2007-01-11|Telmex Colombia S.A., CO
190.211.204.68|27833|190.211.200.0/21|AR|lacnic|2010-11-17|BVNET S.A., AR
192.187.121.46|33387|192.187.96.0/19|US|arin|2013-05-01|NOCIX, US
193.178.170.232|48282|193.178.170.0/24|RU|ripencc|2019-11-18|VDSINA-AS, RU
195.123.188.186|197726|195.123.188.0/24|UA|ripencc|1997-04-04|UKRNAMES-AS, UA
195.56.63.5|5588|195.56.0.0/16|HU|ripencc|1996-04-26|GTSCE GTS Central Europe / Antel Germany, CZ
195.88.121.113|48969|195.88.120.0/23|RU|ripencc|2009-03-09|PARUS-TELECOM-AS, RU
198.100.146.191|16276|198.100.144.0/20|CA|arin|2012-07-05|OVH, FR
2.49.98.197|5384|2.49.96.0/19|AE|ripencc|2010-05-28|EMIRATES-INTERNET Emirates Internet, AE
200.74.205.163|21980|200.74.204.0/23|VE|lacnic|2001-08-03|Dayco Telecom, C.A., VE
206.198.196.82|19693|206.198.196.0/23|US|arin|2018-01-12|CENTRILOGIC-ASN, US
209.181.137.169|209|209.181.137.0/24|US|arin|1997-12-01|CENTURYLINK-US-LEGACY-QWEST, US
210.54.38.227|4771|210.54.32.0/21|NZ|apnic|2000-05-11|SPARKNZ Spark New Zealand Trading Ltd., NZ
212.8.250.141|49981|212.8.250.0/24|NL|ripencc|1999-09-22|WORLDSTREAM, NL
213.144.147.16|13030|213.144.144.0/20|CH|ripencc|2000-01-19|INIT7, CH
213.189.185.198|12392|213.189.176.0/20|BE|ripencc|2001-10-10|ASBRUTELE VOO, BE
216.146.251.8|394778|216.146.250.0/23|US|arin|2003-01-17|NEMR, US
217.15.178.7|25534|217.15.176.0/22|KZ|ripencc|2002-12-24|INTELSOFT-AS, KZ
217.64.47.138|39324|217.64.32.0/20|FI|ripencc|2010-05-12|MEDIAM-AS, FI
3.120.189.78|16509|3.120.0.0/14|US|arin|2017-12-20|AMAZON-02, US
31.164.229.141|6730|31.164.0.0/15|CH|ripencc|2011-02-23|SUNRISE, CH
32.214.183.114|46690|32.208.0.0/12|US|arin|1990-05-30|SNET-FCC, US
34.126.107.179|15169|34.124.0.0/14|US|arin|2018-09-28|GOOGLE, US
34.204.200.38|14618|34.192.0.0/12|US|arin|2016-09-12|AMAZON-AES, US
34.222.116.184|16509|34.208.0.0/12|US|arin|2016-09-12|AMAZON-02, US
34.64.101.4|139070|34.64.0.0/16|US|arin|2018-09-28|GOOGLE-AS-AP Google Asia Pacific Pte. Ltd., SG
34.69.253.72|15169|34.68.0.0/14|US|arin|2018-09-28|GOOGLE, US
34.86.228.49|15169|34.84.0.0/14|US|arin|2018-09-28|GOOGLE, US
34.87.112.13|15169|34.84.0.0/14|US|arin|2018-09-28|GOOGLE, US
34.87.168.12|15169|34.84.0.0/14|US|arin|2018-09-28|GOOGLE, US
34.87.70.59|15169|34.84.0.0/14|US|arin|2018-09-28|GOOGLE, US
34.94.30.169|15169|34.92.0.0/14|US|arin|2018-09-28|GOOGLE, US
34.94.90.206|15169|34.92.0.0/14|US|arin|2018-09-28|GOOGLE, US
35.240.252.177|15169|35.240.0.0/14|US|arin|2017-09-29|GOOGLE, US
35.246.144.163|15169|35.244.0.0/14|US|arin|2017-09-29|GOOGLE, US
35.247.241.173|15169|35.244.0.0/14|US|arin|2017-09-29|GOOGLE, US
38.102.69.70|40470|38.102.69.0/24|US|arin|1991-04-16|PROTECTED-, CA
44.234.33.234|16509|44.224.0.0/11|US|arin|2019-07-18|AMAZON-02, US
46.105.117.90|16276|46.105.0.0/16|FR|ripencc|2010-11-29|OVH, FR
46.166.151.116|43350|46.166.144.0/21|NL|ripencc|2010-12-16|NFORCE, NL
5.128.87.126|31200|5.128.0.0/16|RU|ripencc|2012-06-29|NTK IPv6 customers, RU
5.188.56.54|49505|5.188.56.0/22|RU|ripencc|2012-08-09|SELECTEL, RU
5.9.225.134|24940|5.9.0.0/16|DE|ripencc|2012-04-25|HETZNER-AS, DE
52.221.239.141|16509|52.220.0.0/15|US|arin|2015-09-02|AMAZON-02, US
52.36.94.143|16509|52.36.0.0/14|US|arin|1991-12-19|AMAZON-02, US
52.89.150.155|16509|52.88.0.0/15|US|arin|1991-12-19|AMAZON-02, US
54.183.250.50|16509|54.183.128.0/17|US|arin|2014-10-23|AMAZON-02, US
60.251.129.61|3462|60.251.0.0/16|TW|apnic|2006-07-31|HINET Data Communication Business Group, TW
62.171.129.51|51167|62.171.128.0/23|DE|ripencc|2000-08-18|CONTABO, DE
63.247.147.166|30221|63.247.144.0/20|US|arin|2007-04-11|T3COM, US
69.13.39.39|54489|69.13.0.0/16|US|arin|2002-12-04|CORESPACE-DAL, US
69.59.18.206|397444|69.59.18.0/24|US|arin|2019-04-18|AS-OKI, US
72.176.80.169|11427|72.176.0.0/13|US|arin|2005-11-21|TWC-11427-TEXAS, US
72.50.240.124|393238|72.50.240.0/24|US|arin|2008-03-24|IMONC, US
73.171.139.42|7922|73.0.0.0/8|US|arin|2005-04-19|COMCAST-7922, US
74.213.232.237|14978|74.213.232.0/24|US|arin|2008-05-01|CSSBB, US
74.67.2.120|11351|74.67.0.0/16|US|arin|2006-03-27|TWC-11351-NORTHEAST, US
75.84.35.29|20001|75.84.0.0/15|US|arin|2006-07-19|TWC-20001-PACWEST, US
79.124.7.253|203380|79.124.7.0/24|BG|ripencc|2007-07-31|DAINTERNATIONALGROUP, GB
8.210.18.56|45102|8.210.0.0/17|SG|apnic|1992-12-01|CNNIC-ALIBABA-US-NET-AP Alibaba (US) Technology Co., Ltd., CN
80.57.154.244|33915|80.57.0.0/16|NL|ripencc|2001-05-16|TNF-AS, NL
81.236.246.232|3301|81.224.0.0/12|SE|ripencc|2002-10-04|TELIANET-SWEDEN Telia Company, SE
85.227.245.128|2119|85.224.0.0/13|SE|ripencc|2004-12-17|TELENOR-NEXTEL Telenor Norge AS, NO
85.23.154.79|16086|85.23.0.0/16|FI|ripencc|2005-04-06|DNA, FI
85.241.106.203|3243|85.240.0.0/13|PT|ripencc|2004-01-03|MEO-RESIDENCIAL, PT
85.71.35.47|5610|85.71.0.0/16|CZ|ripencc|2004-11-02|O2-CZECH-REPUBLIC, CZ
87.246.46.132|43561|87.246.46.0/23|BG|ripencc|2005-08-25|NET1-AS, BG
88.210.15.24|212702|88.210.0.0/20|RU|ripencc|2005-11-24|KMSKOMAS, RU
89.132.175.246|21334|89.132.0.0/15|HU|ripencc|2006-01-17|ASN-VODAFONE-, HU
91.106.188.229|198930|91.106.128.0/18|DE|ripencc|2012-06-21|DE-VSM-ASN Peering, DE
91.148.147.214|45007|91.148.147.0/24|BG|ripencc|2006-11-13|VIPNET, BG
91.214.70.63|49542|91.214.68.0/22|RU|ripencc|2009-06-29|AS-ARTPLANET, RU
92.130.178.70|3215|92.130.0.0/16|FR|ripencc|2007-07-12|France Telecom - Orange, FR
94.17.100.238|12709|94.17.96.0/19|MT|ripencc|2008-06-20|MELITACABLE, MT
94.244.97.244|25190|94.244.64.0/18|LT|ripencc|2009-09-09|KIS-AS, LT
94.245.54.122|45011|94.245.48.0/20|SE|ripencc|2008-11-05|SE-A3 http://www.a3.se/, SE
95.211.138.110|60781|95.211.0.0/16|NL|ripencc|2009-02-05|LEASEWEB-NL-AMS-01 Netherlands, NL
95.69.249.63|20850|95.69.248.0/22|UA|ripencc|2008-11-19|VALORKIEV-AS Kharkov, Ukraine, UA
98.25.193.114|11426|98.24.0.0/15|US|arin|2007-11-02|TWC-11426-CAROLINAS, US
