# bitcoin dns seeds and whois results
IP Address|ASN|BGP Prefix|CC|Registry|Allocated|AS Name
104.149.173.150|40676|104.149.0.0/16|US|arin|2014-07-01|AS40676, US
104.238.176.16|20473|104.238.176.0/23|US|arin|2014-11-13|AS-CHOOPA, US
115.68.109.9|38700|115.68.0.0/17|KR|apnic|2008-07-15|SMILESERV-AS-KR SMILESERV, KR
116.203.92.131|24940|116.203.0.0/16|DE|ripencc|2011-01-17|HETZNER-AS, DE
118.194.236.12|135377|118.194.236.0/24|HK|apnic|2007-10-19|UCLOUD-HK-AS-AP UCLOUD INFORMATION TECHNOLOGY (HK) LIMITED, HK
121.78.60.134|9286|121.78.0.0/18|KR|apnic|2006-06-20|KINXIDC-AS-KR KINX, KR
124.197.62.103|9790|124.197.0.0/18|NZ|apnic|2006-04-12|VOCUSGROUPNZ VocusGroup, NZ
13.124.29.164|16509|13.124.0.0/16|US|arin|2016-08-09|AMAZON-02, US
13.126.218.145|16509|13.126.0.0/15|US|arin|2016-08-09|AMAZON-02, US
13.236.100.67|16509|13.236.0.0/14|US|arin|2019-10-01|AMAZON-02, US
13.245.5.102|16509|13.244.0.0/15|US|arin|2018-07-11|AMAZON-02, US
130.37.198.127|1103|130.37.0.0/16|NL|ripencc|1988-05-02|SURFNET-NL SURFnet, The Netherlands, NL
135.181.1.50|24940|135.181.0.0/16|DE|ripencc|1996-04-30|HETZNER-AS, DE
139.180.180.11|20473|139.180.176.0/21|US|apnic|1993-04-08|AS-CHOOPA, US
144.91.116.146|51167|144.91.116.0/23|DE|ripencc|1990-11-20|CONTABO, DE
145.239.1.94|16276|145.239.0.0/16|FR|ripencc|1993-08-03|OVH, FR
145.90.90.231|1103|145.90.0.0/16|NL|ripencc|1993-09-01|SURFNET-NL SURFnet, The Netherlands, NL
157.90.183.39|24940|157.90.0.0/16|DE|ripencc|1996-12-16|HETZNER-AS, DE
158.58.188.37|57497|158.58.188.0/24|IR|ripencc|2011-11-11|FARASOSAMANEHPASARGAD, IR
161.35.13.123|14061|161.35.0.0/20|US|arin|2019-07-30|DIGITALOCEAN-ASN, US
162.0.234.96|22612|162.0.224.0/20|US|arin|2020-04-03|NAMECHEAP-NET, US
167.179.172.169|4764|167.179.172.0/22|AU|apnic|1993-09-08|WIDEBAND-AS-AP Aussie Broadband, AU
168.119.140.58|24940|168.119.0.0/16|DE|ripencc|1994-04-05|HETZNER-AS, DE
173.230.87.157|23473|173.230.86.0/23|US|arin|2010-03-03|PAVLOVMEDIA, US
174.91.9.199|577|174.91.0.0/16|CA|arin|2009-02-27|BACOM, CA
175.182.132.203|4780|175.182.128.0/18|TW|apnic|2010-01-27|SEEDNET Digital United Inc., TW
178.143.52.84|15962|178.143.0.0/16|SK|ripencc|2010-08-04|OSK-DNI Slovakia, SK
178.238.123.43|29226|178.238.112.0/20|RU|ripencc|2010-07-16|MASTERTEL-AS Moscow, Russia, RU
178.62.80.57|14061|178.62.64.0/18|US|ripencc|2010-02-26|DIGITALOCEAN-ASN, US
178.63.247.209|24940|178.63.0.0/16|DE|ripencc|2010-03-02|HETZNER-AS, DE
178.79.83.93|3212|178.79.64.0/18|SI|ripencc|2010-05-07|TELEMACH Broadband Access & Carrier Services, SI
185.152.138.74|6697|185.152.136.0/22|BY|ripencc|2016-05-18|BELPAK-AS BELPAK, BY
185.184.79.226|49505|185.184.79.0/24|RU|ripencc|2017-01-03|SELECTEL, RU
185.26.28.173|31415|185.26.28.0/24|RU|ripencc|2013-05-14|SVSCOMM-AS, RU
187.58.99.43|18881|187.58.96.0/19|BR|lacnic|2009-04-09|TELEFONICA BRASIL S.A, BR
188.37.24.190|12353|188.37.0.0/16|PT|ripencc|2010-01-07|VODAFONE-PT Vodafone Portugal, PT
195.154.214.157|12876|195.154.0.0/16|FR|ripencc|1996-08-27|Online SAS, FR
196.25.230.69|5713|196.25.0.0/16|ZA|afrinic|1995-10-24|SAIX-NET, ZA
2.132.148.11|9198|2.132.144.0/20|KZ|ripencc|2010-12-23|KAZTELECOM-AS, KZ
201.191.6.103|11830|201.191.4.0/22|CR|lacnic|2008-09-15|Instituto Costarricense de Electricidad y Telecom., CR
204.228.142.210|6315|204.228.128.0/19|US|arin|2020-01-31|XMISSION, US
206.189.54.247|14061|206.189.48.0/20|US|arin|1995-11-15|DIGITALOCEAN-ASN, US
207.244.227.33|40021|207.244.224.0/20|US|arin|2021-05-07|CONTABO, US
208.102.7.153|6181|208.102.0.0/17|US|arin|2006-03-01|FUSE-NET, US
210.179.175.208|4766|210.179.0.0/16|KR|apnic|1998-11-24|KIXS-AS-KR Korea Telecom, KR
211.251.235.65|4766|211.250.0.0/15|KR|apnic|2000-09-08|KIXS-AS-KR Korea Telecom, KR
212.83.82.230|33915|212.83.80.0/20|NL|ripencc|1999-02-03|TNF-AS, NL
216.146.251.8|394778|216.146.250.0/23|US|arin|2003-01-17|NEMR, US
24.162.56.127|11427|24.162.0.0/17|US|arin|2000-06-09|TWC-11427-TEXAS, US
24.217.25.147|20115|24.217.0.0/16|US|arin|1999-02-22|CHARTER-20115, US
3.83.239.210|14618|3.80.0.0/12|US|arin|2017-12-20|AMAZON-AES, US
31.134.121.208|56668|31.134.120.0/21|UA|ripencc|2011-04-21|SIMNET-UA-AS Kiev, Ukraine, UA
34.210.198.230|16509|34.208.0.0/12|US|arin|2016-09-12|AMAZON-02, US
34.86.174.130|15169|34.84.0.0/14|US|arin|2018-09-28|GOOGLE, US
34.92.247.201|15169|34.92.0.0/14|US|arin|2018-09-28|GOOGLE, US
35.194.161.52|15169|35.192.0.0/14|US|arin|2017-03-21|GOOGLE, US
35.196.133.89|15169|35.196.0.0/15|US|arin|2017-03-21|GOOGLE, US
35.228.71.136|15169|35.228.0.0/14|US|arin|2017-09-29|GOOGLE, US
35.240.252.177|15169|35.240.0.0/14|US|arin|2017-09-29|GOOGLE, US
37.230.41.130|16097|37.230.40.0/21|DE|ripencc|2012-04-12|HLKOMM 04107 Leipzig, DE
37.48.67.11|60781|37.48.64.0/18|NL|ripencc|2012-01-24|LEASEWEB-NL-AMS-01 Netherlands, NL
41.235.53.219|8452|41.235.32.0/19|EG|afrinic|2007-04-03|TE-AS TE-AS, EG
45.63.54.13|20473|45.63.48.0/20|US|arin|2015-01-02|AS-CHOOPA, US
45.83.91.90|9009|45.83.91.0/24|RO|ripencc|2019-05-27|M247, GB
46.229.238.187|29405|46.229.224.0/20|SK|ripencc|2011-02-21|VNET-AS, SK
47.156.144.164|5650|47.156.0.0/16|US|arin|2015-08-28|FRONTIER-FRTR, US
5.188.62.18|34665|5.188.62.0/24|RU|ripencc|2012-08-09|PINDC-AS, RU
5.196.81.99|16276|5.196.0.0/16|FR|ripencc|2012-08-23|OVH, FR
51.15.171.192|12876|51.15.0.0/16|FR|ripencc|1993-09-01|Online SAS, FR
51.210.215.139|16276|51.210.0.0/16|FR|ripencc|1993-09-01|OVH, FR
51.38.58.134|16276|51.38.0.0/16|FR|ripencc|1993-09-01|OVH, FR
51.79.25.250|16276|51.79.0.0/17|CA|arin|2019-01-10|OVH, FR
51.89.153.76|16276|51.89.0.0/16|FR|ripencc|1993-09-01|OVH, FR
52.89.150.155|16509|52.88.0.0/15|US|arin|1991-12-19|AMAZON-02, US
54.173.97.189|14618|54.172.0.0/15|US|arin|2014-10-23|AMAZON-AES, US
59.167.155.59|4739|59.167.0.0/16|AU|apnic|2005-09-14|INTERNODE-AS Internode Pty Ltd, AU
62.165.244.221|20845|62.165.192.0/18|HU|ripencc|2002-11-26|DIGICABLE, HU
62.210.172.80|12876|62.210.0.0/16|FR|ripencc|2000-10-26|Online SAS, FR
62.210.99.100|12876|62.210.0.0/16|FR|ripencc|2000-10-26|Online SAS, FR
62.250.139.138|50266|62.250.128.0/17|NL|ripencc|2000-11-07|TMOBILE-THUIS, NL
62.28.190.194|15525|62.28.0.0/16|PT|ripencc|2006-06-08|MEO-EMPRESAS, PT
64.233.245.39|12083|64.233.245.0/24|US|arin|2002-04-10|WOW-INTERNET, US
65.21.89.182|24940|65.21.0.0/16|DE|ripencc|2001-09-26|HETZNER-AS, DE
66.215.102.131|20115|66.215.96.0/20|US|arin|2001-12-31|CHARTER-20115, US
66.36.157.80|6280|66.36.156.0/22|CA|arin|2002-08-22|SYNAPSE, CA
68.183.67.64|14061|68.183.64.0/20|US|arin|2018-09-18|DIGITALOCEAN-ASN, US
68.207.233.118|33363|68.207.128.0/17|US|arin|2003-01-31|BHN-33363, US
70.185.56.136|22773|70.185.32.0/19|US|arin|2004-07-21|ASN-CXA-ALL-CCI-22773-RDC, US
74.109.216.14|701|74.109.192.0/18|US|arin|2009-01-26|UUNET, US
75.158.39.231|852|75.158.0.0/17|CA|arin|2006-08-01|TELUS Communications, CA
77.79.85.236|39582|77.79.85.0/24|TR|ripencc|2007-03-12|GRID, TR
78.129.201.15|20860|78.129.128.0/17|GB|ripencc|2007-04-18|IOMART-AS, GB
78.132.38.2|8412|78.132.0.0/17|AT|ripencc|2007-05-30|TMA Magenta Telekom, AT
78.141.225.96|20473|78.141.224.0/19|US|ripencc|2007-07-30|AS-CHOOPA, US
78.158.164.98|43343|78.158.164.0/24|IR|ripencc|2007-09-06|ARYASAT Arya Sepehr Ettelarasan Tehran (ICP/ISDP/ISP/VoIP), IR
80.235.34.231|3249|80.235.0.0/17|EE|ripencc|2001-10-11|ESTPAK, EE
80.242.39.76|44234|80.242.36.0/22|SK|ripencc|2007-12-10|GAYA-AS P.O.Hviezdoslava 23B, SK
81.166.239.85|29695|81.166.0.0/15|NO|ripencc|2005-01-04|ALTIBOX_AS Norway, NO
81.184.215.161|6739|81.184.0.0/16|ES|ripencc|2002-12-09|ONO-AS Cableuropa - ONO, ES
82.148.25.101|49505|82.148.24.0/22|RU|ripencc|2003-07-10|SELECTEL, RU
82.160.215.7|20960|82.160.0.0/16|PL|ripencc|2003-07-01|TKTELEKOM-AS, PL
82.165.241.50|8560|82.165.0.0/16|DE|ripencc|2003-08-06|IONOS-AS This is the joint network for IONOS, Fasthosts, Arsys, 1&1 Mail and Media and 1&1 Telecom. Formerly known as 1&1 Internet SE., DE
84.22.139.57|33991|84.22.136.0/21|RU|ripencc|2004-09-22|IGRA-SERVICE-AS, RU
85.214.103.48|6724|85.214.0.0/15|DE|ripencc|2005-02-24|STRATO STRATO AG, DE
86.141.7.33|2856|86.128.0.0/12|GB|ripencc|2005-02-07|BT-UK-AS BTnet UK Regional network, GB
86.153.36.134|2856|86.128.0.0/11|GB|ripencc|2005-02-07|BT-UK-AS BTnet UK Regional network, GB
87.57.16.20|3292|87.48.0.0/12|DK|ripencc|2005-05-20|TDC TDC A/S, DK
91.121.181.6|16276|91.121.0.0/16|FR|ripencc|2006-09-20|OVH, FR
91.204.149.5|42765|91.204.148.0/22|RU|ripencc|2008-06-23|INFOTECH-LINER-AS, RU
94.110.23.215|47377|94.110.0.0/19|BE|ripencc|2008-06-20|ORANGE_BELGIUM_SA New company name is Orange Belgium SA, BE
95.161.12.45|39598|95.161.0.0/18|AG|ripencc|2008-12-23|TIERA-AS, AG
95.170.88.58|20857|95.170.64.0/19|NL|ripencc|2009-02-03|TRANSIP-AS Amsterdam, the Netherlands, NL
95.217.62.121|24940|95.217.0.0/16|DE|ripencc|2009-02-24|HETZNER-AS, DE
95.217.78.168|24940|95.217.0.0/16|DE|ripencc|2009-02-24|HETZNER-AS, DE
95.83.73.31|35728|95.83.64.0/18|RU|ripencc|2008-12-15|MTS-PENZA-AS, RU
95.87.207.152|43561|95.87.192.0/18|BG|ripencc|2009-02-12|NET1-AS, BG
97.84.96.62|20115|97.84.64.0/18|US|arin|2007-03-21|CHARTER-20115, US
