# bitcoin dns seeds and whois results
IP Address|ASN|BGP Prefix|CC|Registry|Allocated|AS Name
103.235.230.196|4808|103.235.228.0/22|CN|apnic|2014-07-09|CHINA169-BJ China Unicom Beijing Province Network, CN
106.157.214.199|2516|106.128.0.0/11|JP|apnic|2011-03-15|KDDI KDDI CORPORATION, JP
108.168.125.21|40788|108.168.0.0/17|CA|arin|2011-12-29|START-, CA
118.92.122.242|9500|118.92.0.0/16|NZ|apnic|2007-08-24|VODAFONE-TRANSIT-AS Vodafone NZ Ltd., NZ
119.8.19.14|135026|119.8.19.0/24|SG|apnic|2007-11-23|THINKDREAM-AS-AP ThinkDream Technology Limited, HK
13.244.71.100|16509|13.244.0.0/15|US|arin|2018-07-11|AMAZON-02, US
14.133.132.3|18126|14.133.0.0/16|JP|apnic|2010-09-01|CTCX Chubu Telecommunications Company, Inc., JP
148.66.50.234|45753|148.66.50.0/24|HK|apnic|1991-04-11|NETSEC-HK NETSEC, HK
15.161.99.250|16509|15.161.0.0/16|US|arin|2019-12-26|AMAZON-02, US
161.97.129.105|51167|161.97.128.0/19|DE|ripencc|1992-06-23|CONTABO, DE
178.62.80.20|14061|178.62.64.0/18|US|ripencc|2010-02-26|DIGITALOCEAN-ASN, US
178.79.83.93|3212|178.79.64.0/18|SI|ripencc|2010-05-07|TELEMACH Broadband Access & Carrier Services, SI
18.216.163.203|16509|18.216.0.0/14|US|arin|2019-10-07|AMAZON-02, US
18.27.79.17|3|18.27.0.0/16|US|arin|1994-01-01|MIT-GATEWAYS, US
185.158.114.184|44812|185.158.114.0/24|RU|ripencc|2016-07-05|IPSERVER-RU-NET Fiord, RU
185.254.97.164|60548|185.254.96.0/22|DE|ripencc|2018-04-10|AVORO Avoro, DE
189.121.172.220|28573|189.121.0.0/16|BR|lacnic|2008-06-03|CLARO S.A., BR
192.146.137.44|57672|192.146.137.0/24|GB|ripencc|2012-01-06|DJA-ASN, GB
206.189.83.36|14061|206.189.80.0/20|US|arin|1995-11-15|DIGITALOCEAN-ASN, US
206.55.210.10|33618|206.55.210.0/24|US|arin|2008-03-27|SERVLET-LLC-AS, US
209.145.63.150|40021|209.145.48.0/20|US|arin|2000-07-21|CONTABO, US
209.226.142.140|577|209.226.0.0/16|CA|arin|1998-04-28|BACOM, CA
210.183.102.85|4766|210.183.0.0/16|KR|apnic|1998-11-24|KIXS-AS-KR Korea Telecom, KR
35.177.161.171|16509|35.176.0.0/15|US|arin|2016-08-09|AMAZON-02, US
35.80.201.51|16509|35.80.0.0/12|US|arin|2019-04-15|AMAZON-02, US
46.4.87.133|24940|46.4.0.0/16|DE|ripencc|2010-08-19|HETZNER-AS, DE
49.12.82.82|24940|49.12.0.0/16|DE|ripencc|2010-10-21|HETZNER-AS, DE
52.119.120.105|32329|52.119.120.0/21|US|arin|2016-08-04|MONKEYBRAINS, US
62.210.206.84|12876|62.210.0.0/16|FR|ripencc|2000-10-26|Online SAS, FR
64.201.87.233|21555|64.201.80.0/21|US|arin|2007-01-09|LHTC, US
65.19.155.82|6939|65.19.128.0/18|US|arin|2002-04-17|HURRICANE, US
70.83.173.66|5769|70.83.128.0/18|CA|arin|2004-07-14|VIDEOTRON, CA
71.13.92.62|20115|71.13.80.0/20|US|arin|2004-10-01|CHARTER-20115, US
71.191.207.62|701|71.191.0.0/16|US|arin|2005-06-01|UUNET, US
77.37.138.239|42610|77.37.128.0/17|RU|ripencc|2007-03-21|NCNET-AS, RU
78.27.139.13|15683|78.27.128.0/18|UA|ripencc|2010-06-11|DOMASHKA-AS, UA
81.0.198.25|21430|81.0.198.0/24|CZ|ripencc|2001-12-14|WIA-AS, CZ
81.4.100.149|198203|81.4.100.0/22|NL|ripencc|2002-05-10|ASN-ROUTELABEL, NL
82.72.135.67|33915|82.72.0.0/15|NL|ripencc|2003-07-04|TNF-AS, NL
84.40.96.129|43561|84.40.96.0/24|BG|ripencc|2009-10-02|NET1-AS, BG
86.98.127.249|5384|86.98.64.0/18|AE|ripencc|2005-04-20|EMIRATES-INTERNET Emirates Internet, AE
88.212.168.101|56329|88.212.168.0/21|GB|ripencc|2005-12-15|GIGACLEAR, GB
91.181.52.200|5432|91.180.0.0/14|BE|ripencc|2006-09-04|PROXIMUS-ISP-AS, BE
93.115.86.246|3223|93.115.80.0/21|GB|ripencc|2007-12-21|VOXILITY, GB
95.217.194.209|24940|95.217.0.0/16|DE|ripencc|2009-02-24|HETZNER-AS, DE
95.217.61.212|24940|95.217.0.0/16|DE|ripencc|2009-02-24|HETZNER-AS, DE
