# bitcoin dns seeds and whois results
IP Address|ASN|BGP Prefix|CC|Registry|Allocated|AS Name
102.182.204.96|37611|102.182.0.0/16|ZA|afrinic|2017-06-02|Afrihost, ZA
103.9.174.70|55905|103.9.174.0/24|JP|apnic|2012-05-18|COMZNET2 TOP CLOUD Inc., JP
104.143.2.195|26863|104.143.2.0/23|US|arin|2020-10-07|GAMESERVERKINGS, US
108.56.134.33|701|108.56.0.0/16|US|arin|2009-06-05|UUNET, US
117.51.159.130|63646|117.51.159.0/24|CN|apnic|2007-06-20|XJKJ Beijing Xiaoju Science and Technology Co., Ltd., CN
124.35.95.140|17506|124.32.0.0/14|JP|apnic|2005-12-21|UCOM ARTERIA Networks Corporation, JP
13.48.138.23|16509|13.48.0.0/15|US|arin|2020-08-05|AMAZON-02, US
13.53.123.164|16509|13.53.0.0/16|US|arin|2020-08-05|AMAZON-02, US
136.58.99.43|16591|136.58.96.0/20|US|arin|2015-10-06|GOOGLE-FIBER, US
144.76.37.126|24940|144.76.0.0/16|DE|ripencc|1990-11-16|HETZNER-AS, DE
146.226.76.227|20243|146.226.0.0/17|VI|arin|1991-02-28|U, VI
15.228.41.112|16509|15.228.0.0/15|US|arin|2019-03-26|AMAZON-02, US
151.29.118.105|1267|151.29.0.0/16|IT|ripencc|1991-05-13|ASN-WINDTRE IUNET, IT
155.133.2.5|61056|155.133.2.0/24|PL|ripencc|1991-11-07|ASN-MULTI-NET-EU, PL
161.97.101.36|51167|161.97.100.0/23|DE|ripencc|1992-06-23|CONTABO, DE
162.0.210.38|22612|162.0.210.0/24|US|arin|2020-09-03|NAMECHEAP-NET, US
162.0.234.96|22612|162.0.224.0/20|US|arin|2020-04-03|NAMECHEAP-NET, US
168.119.174.106|24940|168.119.0.0/16|DE|ripencc|1994-04-05|HETZNER-AS, DE
173.231.203.46|22611|173.231.192.0/20|US|arin|2018-10-23|INMOTION, US
173.56.235.225|701|173.56.0.0/16|US|arin|2008-10-09|UUNET, US
174.73.219.243|22773|174.73.128.0/17|US|arin|2009-02-19|ASN-CXA-ALL-CCI-22773-RDC, US
176.151.196.117|5410|176.128.0.0/10|FR|ripencc|2011-07-06|BOUYGTEL-ISP, FR
177.198.70.212|26599|177.196.0.0/14|BR|lacnic|2012-08-31|TELEFONICA BRASIL S.A, BR
178.196.1.210|3303|178.196.0.0/15|CH|ripencc|2010-02-24|SWISSCOM Swisscom (Switzerland) Ltd, CH
178.20.100.35|45012|178.20.100.0/22|DE|ripencc|2010-02-22|CLOUDPIT, DE
178.79.83.93|3212|178.79.64.0/18|SI|ripencc|2010-05-07|TELEMACH Broadband Access & Carrier Services, SI
18.202.248.174|16509|18.202.0.0/15|US|arin|2019-10-07|AMAZON-02, US
18.203.235.181|16509|18.202.0.0/15|US|arin|2019-10-07|AMAZON-02, US
18.228.31.45|16509|18.228.0.0/16|US|arin|2019-10-07|AMAZON-02, US
18.230.191.224|16509|18.230.0.0/16|US|arin|2019-10-07|AMAZON-02, US
181.48.77.26|14080|181.48.64.0/19|CO|lacnic|2011-05-02|Telmex Colombia S.A., CO
185.131.63.83|44489|185.131.60.0/22|CZ|ripencc|2015-12-15|STARNET, CZ
185.141.60.36|44901|185.141.60.0/24|BG|ripencc|2018-02-23|BELCLOUD, BG
185.141.63.163|44901|185.141.63.0/24|CY|ripencc|2018-02-23|BELCLOUD, BG
185.165.168.196|200651|185.165.168.0/24|SC|ripencc|2016-08-26|FLOKINET, SC
185.203.119.55|44901|185.203.119.0/24|CY|ripencc|2017-05-12|BELCLOUD, BG
188.122.2.55|49743|188.122.0.0/20|PL|ripencc|2009-05-14|FINEMEDIA-WROCLAW, PL
192.42.253.213|60251|192.42.253.0/24|CH|ripencc|2019-11-12|CALYPSO-IT, CH
194.26.1.83|209984|194.26.1.0/24|ES|ripencc|2019-11-20|WIBER, ES
195.211.161.124|44341|195.211.161.0/24|RU|ripencc|2009-10-20|SEVONLINE, RU
195.224.116.20|5413|195.224.0.0/16|GB|ripencc|1996-09-18|AS5413, GB
2.86.84.187|6799|2.86.64.0/19|GR|ripencc|2010-05-12|OTENET-GR Athens - Greece, GR
20.96.20.112|8075|20.64.0.0/10|US|arin|2017-10-18|MICROSOFT-CORP-MSN-AS-BLOCK, US
206.252.192.6|8002|206.252.192.0/19|US|arin|1996-08-12|STEALTH, US
207.180.223.68|51167|207.180.222.0/23|DE|ripencc|1996-08-21|CONTABO, DE
207.182.146.130|10297|207.182.146.0/24|US|arin|2008-03-03|ENET-2, US
209.131.236.105|393552|209.131.236.0/23|US|arin|2015-04-20|COL-LPC, US
212.89.173.216|49864|212.89.160.0/19|AT|ripencc|2009-09-28|ECSNET-AS, AT
213.108.119.84|60191|213.108.112.0/21|PL|ripencc|2009-07-29|NOWATEL-AS, PL
213.202.35.178|21466|213.202.32.0/21|CH|ripencc|2001-12-12|ASQUICKNET Kabelfernsehn Boedeli in Interlaken (Switzerland), CH
216.18.188.159|29789|216.18.160.0/19|US|arin|2009-08-31|REFLECTED, US
217.64.133.220|60098|217.64.128.0/21|RU|ripencc|2008-10-29|INSITINVEST-AS, RU
23.24.153.172|7922|23.24.0.0/15|US|arin|2012-01-13|COMCAST-7922, US
23.253.164.224|19994|23.253.160.0/19|US|arin|2013-11-08|RACKSPACE, US
24.237.96.82|8047|24.237.0.0/16|US|arin|1997-10-14|GCI, US
31.179.204.142|201046|31.179.204.0/24|PL|ripencc|2011-03-22|TRAFCOM_NET, PL
31.186.214.58|6830|31.186.192.0/19|PL|ripencc|2011-03-24|LIBERTYGLOBAL Liberty Global (formerly UPC Broadband Holding, aka AORTA), NL
34.101.186.228|139190|34.101.0.0/16|US|arin|2018-09-28|GOOGLE-AS-AP Google Asia Pacific Pte. Ltd., SG
34.101.77.203|139190|34.101.0.0/16|US|arin|2018-09-28|GOOGLE-AS-AP Google Asia Pacific Pte. Ltd., SG
34.105.19.97|15169|34.104.0.0/14|US|arin|2018-09-28|GOOGLE, US
34.218.45.5|16509|34.208.0.0/12|US|arin|2016-09-12|AMAZON-02, US
34.83.222.21|15169|34.80.0.0/14|US|arin|2018-09-28|GOOGLE, US
34.87.232.92|15169|34.84.0.0/14|US|arin|2018-09-28|GOOGLE, US
34.92.205.223|15169|34.92.0.0/14|US|arin|2018-09-28|GOOGLE, US
34.97.110.74|15169|34.97.0.0/17|US|arin|2018-09-28|GOOGLE, US
35.165.198.33|16509|35.160.0.0/13|US|arin|2016-08-09|AMAZON-02, US
35.166.238.70|16509|35.160.0.0/13|US|arin|2016-08-09|AMAZON-02, US
35.189.17.69|15169|35.189.0.0/19|US|arin|2016-10-11|GOOGLE, US
35.203.15.57|15169|35.200.0.0/14|US|arin|2017-03-21|GOOGLE, US
35.228.238.236|15169|35.228.0.0/14|US|arin|2017-09-29|GOOGLE, US
45.154.252.98|61072|45.154.252.0/24|GB|ripencc|2019-09-17|EZNET-AS Used by Electrum Technologies GmbH, GB
45.89.140.83|44486|45.89.140.0/24|DE|ripencc|2019-06-21|SYNLINQ synlinq.de, DE
45.92.43.12|208612|45.92.43.0/24|GB|ripencc|2019-07-01|AS-KURT, GB
46.141.95.133|49524|46.141.0.0/17|IT|ripencc|2010-11-22|WOLNEXT, IT
46.173.50.58|49120|46.173.32.0/19|RU|ripencc|2011-01-28|GORSET-AS, RU
46.30.165.147|25521|46.30.160.0/21|UA|ripencc|2010-09-03|ASN-ASIPN, UA
5.133.153.155|20875|5.133.144.0/20|BA|ripencc|2012-07-04|HPTNET-AS, BA
5.188.56.58|49505|5.188.56.0/22|RU|ripencc|2012-08-09|SELECTEL, RU
5.9.54.133|24940|5.9.0.0/16|DE|ripencc|2012-04-25|HETZNER-AS, DE
50.2.13.164|62904|50.2.12.0/23|US|arin|2010-06-25|EONIX-COMMUNICATIONS-ASBLOCK-62904, US
51.148.153.60|13037|51.148.0.0/16|GB|ripencc|1993-09-01|ZEN-AS Zen Internet - UK, GB
54.92.14.235|16509|54.92.0.0/17|US|arin|2014-06-20|AMAZON-02, US
62.13.193.206|15498|62.13.192.0/21|AT|ripencc|2000-07-04|RTCNOW RTCnow Streaming Services GmbH, AT
62.171.186.166|51167|62.171.186.0/23|DE|ripencc|2000-08-18|CONTABO, DE
62.216.54.174|41710|62.216.54.0/23|UA|ripencc|2008-10-24|MIITLTD-AS MIIT Ltd., UA
63.234.121.181|209|63.224.0.0/12|US|arin|1999-10-11|CENTURYLINK-US-LEGACY-QWEST, US
66.117.10.85|17139|66.117.0.0/20|US|arin|2006-10-27|NETRANGE, US
68.144.232.248|6327|68.144.232.0/22|CA|arin|2002-06-03|SHAW, CA
68.183.75.251|14061|68.183.64.0/20|US|arin|2018-09-18|DIGITALOCEAN-ASN, US
69.126.53.252|6128|69.124.0.0/14|US|arin|2004-01-15|CABLE-NET-1, US
69.13.39.34|54489|69.13.0.0/16|US|arin|2002-12-04|CORESPACE-DAL, US
72.65.246.84|701|72.65.192.0/18|US|arin|2005-06-24|UUNET, US
76.11.60.155|32233|76.11.48.0/20|CA|arin|2007-02-23|PERSONA, CA
76.169.229.92|20001|76.168.0.0/13|US|arin|2006-07-26|TWC-20001-PACWEST, US
77.251.174.25|33915|77.250.0.0/15|NL|ripencc|2007-01-26|TNF-AS, NL
79.136.94.13|8473|79.136.0.0/17|SE|ripencc|2007-09-27|BAHNHOF http://www.bahnhof.net/, SE
8.209.71.217|45102|8.209.64.0/19|SG|apnic|1992-12-01|CNNIC-ALIBABA-US-NET-AP Alibaba (US) Technology Co., Ltd., CN
80.236.233.38|5432|80.236.128.0/17|BE|ripencc|2001-10-31|PROXIMUS-ISP-AS, BE
81.6.39.241|13030|81.6.32.0/20|CH|ripencc|2002-06-13|INIT7, CH
82.148.25.101|49505|82.148.24.0/22|RU|ripencc|2003-07-10|SELECTEL, RU
82.64.135.138|12322|82.64.0.0/14|FR|ripencc|2003-04-03|PROXAD, FR
84.38.3.249|196691|84.38.0.0/22|RU|ripencc|2012-05-31|GET-NET-AS, RU
86.24.166.3|5089|86.24.0.0/13|GB|ripencc|2005-03-29|NTL, GB
86.40.163.208|5466|86.40.0.0/13|IE|ripencc|2005-03-31|EIRCOM Internet House, IE
87.166.20.59|3320|87.128.0.0/10|DE|ripencc|2006-03-30|DTAG Internet service provider operations, DE
88.119.197.200|8764|88.119.192.0/20|LT|ripencc|2005-10-24|TELIA-LIETUVA, LT
89.163.225.8|24961|89.163.128.0/17|DE|ripencc|2006-02-17|MYLOC-AS IP Backbone of myLoc managed IT AG, DE
89.88.62.190|5410|89.80.0.0/12|FR|ripencc|2006-02-23|BOUYGTEL-ISP, FR
91.209.51.131|48239|91.209.51.0/24|UA|ripencc|2008-10-22|ITTV-AS Kiev, Ukraine, UA
93.46.54.4|12874|93.46.0.0/15|IT|ripencc|2008-02-25|FASTWEB, IT
94.141.169.64|34602|94.141.160.0/19|RU|ripencc|2010-07-07|STARLINK-AS Moscow, Russia, RU
94.19.7.55|35807|94.19.0.0/16|RU|ripencc|2008-07-03|SKYNET-SPB-AS, RU
94.244.97.244|25190|94.244.64.0/18|LT|ripencc|2009-09-09|KIS-AS, LT
95.69.249.63|20850|95.69.248.0/22|UA|ripencc|2008-11-19|VALORKIEV-AS Kharkov, Ukraine, UA
95.85.254.28|43708|95.85.192.0/18|CZ|ripencc|2008-12-31|METRONET, CZ
96.224.58.144|701|96.224.0.0/16|US|arin|2006-12-29|UUNET, US
97.84.96.62|20115|97.84.64.0/18|US|arin|2007-03-21|CHARTER-20115, US
98.17.20.170|7029|98.16.0.0/13|US|arin|2007-02-05|WINDSTREAM, US
99.228.62.2|812|99.228.0.0/16|CA|arin|2007-03-12|ROGERS-COMMUNICATIONS, CA
