# bitcoin dns seeds and whois results
IP Address|ASN|BGP Prefix|CC|Registry|Allocated|AS Name
104.180.195.209|7018|104.176.0.0/12|US|arin|2014-08-12|ATT-INTERNET4, US
106.157.214.199|2516|106.128.0.0/11|JP|apnic|2011-03-15|KDDI KDDI CORPORATION, JP
122.199.37.252|38195|122.199.36.0/22|AU|apnic|2006-09-19|SUPERLOOP-AS-AP Superloop, AU
139.59.11.154|14061|139.59.0.0/20|SG|apnic|1990-06-27|DIGITALOCEAN-ASN, US
143.110.231.111|14061|143.110.224.0/20|US|arin|2020-01-17|DIGITALOCEAN-ASN, US
143.110.238.129|14061|143.110.224.0/20|US|arin|2020-01-17|DIGITALOCEAN-ASN, US
15.223.114.10|16509|15.222.0.0/15|US|arin|2019-12-26|AMAZON-02, US
161.97.129.105|51167|161.97.128.0/19|DE|ripencc|1992-06-23|CONTABO, DE
162.252.242.18|31798|162.252.242.0/24|CA|arin|2014-02-06|DATACITY, CA
165.22.65.212|14061|165.22.64.0/20|US|arin|2018-10-16|DIGITALOCEAN-ASN, US
176.99.2.207|197695|176.99.2.0/24|RU|ripencc|2012-06-26|AS-REG, RU
178.63.16.7|24940|178.63.0.0/16|DE|ripencc|2010-03-02|HETZNER-AS, DE
178.79.83.93|3212|178.79.64.0/18|SI|ripencc|2010-05-07|TELEMACH Broadband Access & Carrier Services, SI
178.90.69.203|9198|178.90.68.0/22|KZ|ripencc|2009-11-26|KAZTELECOM-AS, KZ
185.137.175.197|13030|185.137.172.0/22|CH|ripencc|2016-02-08|INIT7, CH
185.25.48.7|61272|185.25.48.0/22|LT|ripencc|2013-04-29|IST-AS, LT
185.56.81.8|200699|185.56.81.0/24|SC|ripencc|2014-05-01|Datashield, Inc., SC
188.32.14.31|42610|188.32.0.0/16|RU|ripencc|2011-09-30|NCNET-AS, RU
194.146.200.51|42574|194.146.200.0/24|RU|ripencc|2008-07-08|NSPLUS-AS, RU
199.68.199.19|1426|199.68.196.0/22|US|arin|2011-01-10|LIGHTWAVENET, US
206.81.24.91|14061|206.81.16.0/20|US|arin|1995-08-11|DIGITALOCEAN-ASN, US
212.83.35.173|47447|212.83.32.0/19|DE|ripencc|2008-06-24|TTM, DE
217.197.177.87|20845|217.197.176.0/20|HU|ripencc|2004-10-25|DIGICABLE, HU
221.139.14.78|9318|221.138.0.0/15|KR|apnic|2003-05-30|SKB-AS SK Broadband Co Ltd, KR
27.109.178.21|4609|27.109.160.0/19|MO|apnic|2010-06-10|CTM-MO Companhia de Telecomunicacoes de Macau SARL, MO
3.250.188.245|16509|3.248.0.0/13|US|arin|2018-06-25|AMAZON-02, US
34.126.120.20|15169|34.124.0.0/14|US|arin|2018-09-28|GOOGLE, US
34.86.48.176|15169|34.84.0.0/14|US|arin|2018-09-28|GOOGLE, US
35.228.230.233|15169|35.228.0.0/14|US|arin|2017-09-29|GOOGLE, US
37.220.109.238|47264|37.220.109.0/24|GB|ripencc|2012-04-03|LDEX, GB
46.175.178.3|56427|46.175.176.0/21|CZ|ripencc|2011-02-17|ASHRADIL, CZ
47.90.243.31|45102|47.90.192.0/18|US|arin|2015-05-18|CNNIC-ALIBABA-US-NET-AP Alibaba (US) Technology Co., Ltd., CN
49.177.103.146|4804|49.177.64.0/18|AU|apnic|2010-12-02|MPX-AS Microplex PTY LTD, AU
51.15.185.78|12876|51.15.0.0/16|FR|ripencc|1993-09-01|Online SAS, FR
51.195.4.41|16276|51.195.0.0/16|FR|ripencc|1993-09-01|OVH, FR
67.210.228.203|7819|67.210.224.0/21|US|arin|2007-08-22|GLOBAL-IP-NETWORKS, US
67.80.164.152|6128|67.80.0.0/14|US|arin|2001-11-09|CABLE-NET-1, US
76.10.221.49|11013|76.10.208.0/20|US|arin|2007-03-02|BLUE-AS, US
78.125.82.240|8228|78.112.0.0/12|FR|ripencc|2007-05-03|CEGETEL-AS, FR
78.43.208.25|3209|78.43.0.0/16|DE|ripencc|2007-03-23|VODANET International IP-Backbone of Vodafone, DE
79.156.200.152|3352|79.156.0.0/16|ES|ripencc|2007-06-07|TELEFONICA_DE_ESPANA, ES
84.113.25.238|6830|84.112.0.0/15|AT|ripencc|2004-04-07|LIBERTYGLOBAL Liberty Global (formerly UPC Broadband Holding, aka AORTA), NL
85.214.112.222|6724|85.214.0.0/15|DE|ripencc|2005-02-24|STRATO STRATO AG, DE
88.198.53.194|24940|88.198.0.0/16|DE|ripencc|2005-12-27|HETZNER-AS, DE
88.84.222.252|21453|88.84.192.0/19|RU|ripencc|2006-01-23|FLEX-AS, RU
95.217.209.171|24940|95.217.0.0/16|DE|ripencc|2009-02-24|HETZNER-AS, DE
