# bitcoin dns seeds and whois results
IP Address|ASN|BGP Prefix|CC|Registry|Allocated|AS Name
103.163.225.51|141780|103.163.225.0/24|TH|apnic|2021-03-05|CGCL-AS-AP CHANNEL G COMPANY LIMITED, TH
103.57.201.91|136209|103.57.201.0/24|HK|apnic|2015-05-20|BN-AS-KR Korea Fast Networks, KR
104.218.16.214|19969|104.218.16.0/21|US|arin|2014-10-01|JOESDATACENTER, US
104.244.79.131|53667|104.244.79.0/24|US|arin|2014-11-10|PONYNET, US
109.123.213.130|21430|109.123.212.0/23|CZ|ripencc|2009-10-20|WIA-AS, CZ
116.202.196.182|24940|116.202.0.0/16|DE|ripencc|2011-01-17|HETZNER-AS, DE
116.203.61.61|24940|116.203.0.0/16|DE|ripencc|2011-01-17|HETZNER-AS, DE
118.67.201.40|7712|118.67.200.0/22|KH|apnic|2007-08-21|SABAY Sabay Digital (Cambodia), KH
121.40.203.142|37963|121.40.0.0/15|CN|apnic|2006-05-24|CNNIC-ALIBABA-CN-NET-AP Hangzhou Alibaba Advertising Co.,Ltd., CN
121.44.243.200|7545|121.44.224.0/19|AU|apnic|2006-06-01|TPG-INTERNET-AP TPG Telecom Limited, AU
128.197.189.187|111|128.197.0.0/16|US|arin|1987-02-04|BOSTONU-AS, US
13.211.79.130|16509|13.210.0.0/15|US|arin|2019-10-01|AMAZON-02, US
135.181.2.188|24940|135.181.0.0/16|DE|ripencc|1996-04-30|HETZNER-AS, DE
136.243.4.204|24940|136.243.0.0/16|DE|ripencc|2004-04-14|HETZNER-AS, DE
144.48.165.162|135352|144.48.165.0/24|AU|apnic|2016-04-15|TSGNLCO-AS-AP The Signal Co. Wireless, AU
149.28.55.109|20473|149.28.32.0/19|US|arin|2018-05-04|AS-CHOOPA, US
15.207.111.189|16509|15.206.0.0/15|US|arin|2019-03-26|AMAZON-02, US
159.203.125.129|14061|159.203.112.0/20|US|arin|2015-08-10|DIGITALOCEAN-ASN, US
161.97.101.36|51167|161.97.100.0/23|DE|ripencc|1992-06-23|CONTABO, DE
162.218.233.34|26721|162.218.233.0/24|US|arin|2018-03-20|INYO, US
165.232.157.191|14061|165.232.144.0/20|US|arin|2019-12-27|DIGITALOCEAN-ASN, US
167.86.90.67|51167|167.86.90.0/23|DE|ripencc|1993-05-14|CONTABO, DE
178.196.1.210|3303|178.196.0.0/15|CH|ripencc|2010-02-24|SWISSCOM Swisscom (Switzerland) Ltd, CH
178.48.53.163|21334|178.48.0.0/17|HU|ripencc|2010-10-13|ASN-VODAFONE-, HU
178.79.83.93|3212|178.79.64.0/18|SI|ripencc|2010-05-07|TELEMACH Broadband Access & Carrier Services, SI
185.143.45.39|55293|185.143.44.0/22|US|ripencc|2016-03-11|A2HOSTING, US
185.152.138.74|6697|185.152.136.0/22|BY|ripencc|2016-05-18|BELPAK-AS BELPAK, BY
185.78.209.28|202128|185.78.208.0/22|NO|ripencc|2014-11-25|FJORDANE-IT, NO
188.155.216.38|6730|188.154.0.0/15|CH|ripencc|2009-05-08|SUNRISE, CH
190.2.142.44|49981|190.2.128.0/20|CW|lacnic|2006-04-28|WORLDSTREAM, NL
192.151.158.26|33387|192.151.144.0/20|US|arin|2012-11-27|NOCIX, US
193.168.147.25|62000|193.168.146.0/23|FR|ripencc|2018-12-11|NETRIX-AS Netrix, FR
193.210.230.32|1759|193.208.0.0/14|FI|ripencc|1993-12-20|TSF-IP-CORE Telia Finland Oyj, FI
193.42.110.30|60144|193.42.110.0/23|RU|ripencc|2018-10-23|THREE-W-INFRA-AS -- TRANSIT --, NL
194.14.246.86|50066|194.14.246.0/24|SE|ripencc|1993-12-09|SRSTUBES-AS, SE
194.187.224.132|34197|194.187.224.0/22|FR|ripencc|2005-09-21|SHRD-AS, FR
196.50.196.82|327782|196.50.192.0/18|ZA|afrinic|2017-03-01|METROFIBRE-NETWORX, ZA
199.203.54.27|1680|199.203.0.0/16|IL|ripencc|1994-03-22|NV-ASN CELLCOM ltd., IL
200.74.205.163|21980|200.74.204.0/23|VE|lacnic|2001-08-03|Dayco Telecom, C.A., VE
202.79.167.65|64050|202.79.167.0/24|SG|apnic|2002-03-25|BCPL-SG BGPNET Global ASN, SG
204.13.239.221|55106|204.13.232.0/21|US|arin|2011-04-19|DATACATE-AS1, US
207.182.146.130|10297|207.182.146.0/24|US|arin|2008-03-03|ENET-2, US
209.188.18.218|20454|209.188.0.0/19|US|arin|2004-05-18|SSASN2, US
209.205.124.38|7979|209.205.120.0/21|US|arin|2015-06-04|SERVERS-COM, US
212.83.82.230|33915|212.83.80.0/20|NL|ripencc|1999-02-03|TNF-AS, NL
213.178.28.118|29413|213.178.16.0/20|DE|ripencc|1999-12-15|KOMRO-AS Komro Telekommunikations GmbH, DE
213.89.176.153|39651|213.89.0.0/16|SE|ripencc|2000-12-27|TELE2-FIXED-SWEDEN, SE
213.93.176.58|33915|213.93.128.0/17|NL|ripencc|2000-05-09|TNF-AS, NL
216.107.238.165|11524|216.107.224.0/20|US|arin|2000-07-25|SEGN, US
217.64.133.220|60098|217.64.128.0/21|RU|ripencc|2008-10-29|INSITINVEST-AS, RU
218.255.242.114|9381|218.255.224.0/19|HK|apnic|2003-09-22|HKBNES-AS-AP HKBN Enterprise Solutions HK Limited, HK
23.175.0.202|395502|23.175.0.0/24|US|arin|2016-10-26|JCOLO, US
23.233.107.21|5645|23.233.104.0/21|CA|arin|2013-09-24|TEKSAVVY, CA
23.251.64.80|26827|23.251.64.0/19|US|arin|2013-11-07|EPBTELECOM, US
31.132.17.56|57294|31.132.16.0/20|CZ|ripencc|2011-06-16|INTERNET_EXPERT_, CZ
34.101.129.24|139190|34.101.0.0/16|US|arin|2018-09-28|GOOGLE-AS-AP Google Asia Pacific Pte. Ltd., SG
34.101.167.102|139190|34.101.0.0/16|US|arin|2018-09-28|GOOGLE-AS-AP Google Asia Pacific Pte. Ltd., SG
34.101.179.157|139190|34.101.0.0/16|US|arin|2018-09-28|GOOGLE-AS-AP Google Asia Pacific Pte. Ltd., SG
34.101.205.132|139190|34.101.0.0/16|US|arin|2018-09-28|GOOGLE-AS-AP Google Asia Pacific Pte. Ltd., SG
34.101.247.157|139190|34.101.0.0/16|US|arin|2018-09-28|GOOGLE-AS-AP Google Asia Pacific Pte. Ltd., SG
34.101.77.203|139190|34.101.0.0/16|US|arin|2018-09-28|GOOGLE-AS-AP Google Asia Pacific Pte. Ltd., SG
34.105.19.97|15169|34.104.0.0/14|US|arin|2018-09-28|GOOGLE, US
34.106.249.67|15169|34.104.0.0/14|US|arin|2018-09-28|GOOGLE, US
34.125.46.3|15169|34.124.0.0/14|US|arin|2018-09-28|GOOGLE, US
34.193.35.86|14618|34.192.0.0/12|US|arin|2016-09-12|AMAZON-AES, US
34.64.144.84|139070|34.64.0.0/16|US|arin|2018-09-28|GOOGLE-AS-AP Google Asia Pacific Pte. Ltd., SG
34.64.249.186|139070|34.64.0.0/16|US|arin|2018-09-28|GOOGLE-AS-AP Google Asia Pacific Pte. Ltd., SG
34.83.222.21|15169|34.80.0.0/14|US|arin|2018-09-28|GOOGLE, US
34.95.0.69|15169|34.92.0.0/14|US|arin|2018-09-28|GOOGLE, US
35.186.187.87|15169|35.186.160.0/19|US|arin|2016-10-11|GOOGLE, US
35.197.172.49|15169|35.196.0.0/15|US|arin|2017-03-21|GOOGLE, US
35.204.194.255|15169|35.204.0.0/15|US|arin|2017-03-21|GOOGLE, US
37.1.200.82|58061|37.1.200.0/21|GB|ripencc|2011-12-13|SCALAXY-AS, NL
38.65.119.26|55140|38.65.119.0/24|US|arin|1991-04-16|SHO-ME-TECHNOLOGIES, US
45.58.126.138|23470|45.58.126.0/24|US|arin|2015-02-24|RELIABLESITE, US
45.62.198.193|31798|45.62.198.0/24|CA|arin|2015-03-05|DATACITY, CA
46.160.202.162|33993|46.160.200.0/21|RU|ripencc|2010-11-15|ELSITE-AS Elsite network, RU
5.188.56.54|49505|5.188.56.0/22|RU|ripencc|2012-08-09|SELECTEL, RU
5.188.62.18|34665|5.188.62.0/24|RU|ripencc|2012-08-09|PINDC-AS, RU
5.189.154.139|51167|5.189.144.0/20|DE|ripencc|2012-08-09|CONTABO, DE
5.45.74.50|58061|5.45.72.0/22|GB|ripencc|2012-05-24|SCALAXY-AS, NL
5.9.54.133|24940|5.9.0.0/16|DE|ripencc|2012-04-25|HETZNER-AS, DE
51.77.52.201|16276|51.77.0.0/16|FR|ripencc|1993-09-01|OVH, FR
54.180.146.55|16509|54.180.0.0/15|US|arin|2014-10-23|AMAZON-02, US
54.203.6.30|16509|54.202.0.0/15|US|arin|2014-10-23|AMAZON-02, US
54.252.45.131|16509|54.252.0.0/17|US|arin|2012-03-01|AMAZON-02, US
54.65.201.164|16509|54.64.0.0/15|US|arin|2014-06-20|AMAZON-02, US
59.1.12.35|4766|59.0.0.0/13|KR|apnic|2004-08-02|KIXS-AS-KR Korea Telecom, KR
64.33.68.176|11232|64.33.64.0/18|US|arin|2016-12-05|MIDCO-NET, US
66.117.10.85|17139|66.117.0.0/20|US|arin|2006-10-27|NETRANGE, US
66.165.225.130|29802|66.165.224.0/21|US|arin|2017-05-17|HVC-AS, US
72.71.251.161|13672|72.71.192.0/18|US|arin|2005-06-24|FAIRPO-3, US
73.34.90.36|7922|73.0.0.0/8|US|arin|2005-04-19|COMCAST-7922, US
75.97.59.1|3737|75.97.0.0/16|US|arin|2009-01-30|AS-PTD, US
76.100.17.13|7922|76.96.0.0/11|US|arin|2007-01-02|COMCAST-7922, US
76.11.60.155|32233|76.11.48.0/20|CA|arin|2007-02-23|PERSONA, CA
79.152.248.16|3352|79.152.0.0/16|ES|ripencc|2007-06-07|TELEFONICA_DE_ESPANA, ES
8.210.203.247|45102|8.210.128.0/17|SG|apnic|1992-12-01|CNNIC-ALIBABA-US-NET-AP Alibaba (US) Technology Co., Ltd., CN
81.7.17.202|35366|81.7.0.0/19|DE|ripencc|2009-09-18|ISPPRO-AS ISPPRO-AS covers the networks of ISPpro, DE
83.240.15.151|31246|83.240.0.0/17|CZ|ripencc|2004-03-11|NETBOX-AS NETBOX Autonomous system, CZ
85.70.97.59|5610|85.70.0.0/17|CZ|ripencc|2004-11-02|O2-CZECH-REPUBLIC, CZ
86.167.78.250|2856|86.128.0.0/10|GB|ripencc|2005-02-07|BT-UK-AS BTnet UK Regional network, GB
86.40.163.208|5466|86.40.0.0/13|IE|ripencc|2005-03-31|EIRCOM Internet House, IE
87.166.20.59|3320|87.128.0.0/10|DE|ripencc|2006-03-30|DTAG Internet service provider operations, DE
88.134.149.7|3209|88.134.0.0/16|DE|ripencc|2005-10-31|VODANET International IP-Backbone of Vodafone, DE
88.8.88.88|3352|88.8.0.0/16|ES|ripencc|2005-07-13|TELEFONICA_DE_ESPANA, ES
88.86.243.241|48432|88.86.240.0/20|FR|ripencc|2006-02-15|SCGS-AS, FR
89.252.40.18|31148|89.252.40.0/24|UA|ripencc|2006-08-01|FREENET_LLC, UA
91.193.237.116|42916|91.193.236.0/23|RU|ripencc|2007-05-09|IT-AS, RU
91.77.165.170|8359|91.76.0.0/14|RU|ripencc|2006-08-21|MTS, RU
91.87.96.138|47377|91.87.96.0/19|BE|ripencc|2006-08-15|ORANGE_BELGIUM_SA New company name is Orange Belgium SA, BE
92.91.27.60|15557|92.88.0.0/13|FR|ripencc|2007-10-17|LDCOMNET, FR
94.112.132.191|16019|94.112.0.0/16|CZ|ripencc|2008-07-09|VODAFONE-CZ-AS, CZ
94.141.169.64|34602|94.141.160.0/19|RU|ripencc|2010-07-07|STARLINK-AS Moscow, Russia, RU
94.174.64.12|5089|94.174.0.0/16|GB|ripencc|2008-08-28|NTL, GB
97.120.201.171|209|97.120.0.0/16|US|arin|2007-12-19|CENTURYLINK-US-LEGACY-QWEST, US
97.92.108.162|20115|97.92.96.0/20|US|arin|2007-03-21|CHARTER-20115, US
