# bitcoin dns seeds and whois results
IP Address|ASN|BGP Prefix|CC|Registry|Allocated|AS Name
103.163.225.51|141780|103.163.225.0/24|TH|apnic|2021-03-05|CGCL-AS-AP CHANNEL G COMPANY LIMITED, TH
103.99.168.130|54415|103.99.168.0/24|JP|apnic|2017-08-28|WIZ-JP-AS-AP WIZ K.K., JP
116.202.227.86|24940|116.202.0.0/16|DE|ripencc|2011-01-17|HETZNER-AS, DE
116.65.152.15|9824|116.65.128.0/17|JP|apnic|2007-04-30|JTCL-JP-AS Jupiter Telecommunication Co. Ltd, JP
13.76.34.31|8075|13.64.0.0/11|US|arin|2015-03-26|MICROSOFT-CORP-MSN-AS-BLOCK, US
133.125.50.180|7684|133.125.0.0/16|JP|apnic|1997-03-01|SAKURA-A SAKURA Internet Inc., JP
135.23.228.90|5645|135.23.0.0/16|CA|arin|2013-05-09|TEKSAVVY, CA
139.162.135.246|63949|139.162.128.0/19|NL|ripencc|1990-03-24|LINODE-AP Linode, LLC, US
143.110.238.129|14061|143.110.224.0/20|US|arin|2020-01-17|DIGITALOCEAN-ASN, US
143.110.240.102|14061|143.110.240.0/20|US|arin|2020-01-17|DIGITALOCEAN-ASN, US
143.198.101.109|14061|143.198.96.0/20|US|arin|2020-01-24|DIGITALOCEAN-ASN, US
147.229.146.52|197451|147.229.128.0/18|CZ|ripencc|1993-01-11|VUTBR-AS, CZ
15.185.151.207|16509|15.185.0.0/16|US|arin|2021-01-28|AMAZON-02, US
161.97.129.81|51167|161.97.128.0/19|DE|ripencc|1992-06-23|CONTABO, DE
162.156.219.13|852|162.156.192.0/18|CA|arin|2013-03-07|TELUS Communications, CA
162.219.197.152|11550|162.219.196.0/22|US|arin|2013-08-16|SDL-20-AS, US
165.22.226.5|14061|165.22.224.0/20|US|arin|2018-10-16|DIGITALOCEAN-ASN, US
168.119.174.140|24940|168.119.0.0/16|DE|ripencc|1994-04-05|HETZNER-AS, DE
174.114.102.41|812|174.114.0.0/16|CA|arin|2009-03-04|ROGERS-COMMUNICATIONS, CA
175.214.58.100|4766|175.208.0.0/13|KR|apnic|2010-01-27|KIXS-AS-KR Korea Telecom, KR
176.36.37.21|39608|176.36.0.0/16|UA|ripencc|2011-05-20|LANETUA-AS, UA
176.9.124.9|24940|176.9.0.0/16|DE|ripencc|2011-05-17|HETZNER-AS, DE
176.9.62.98|24940|176.9.0.0/16|DE|ripencc|2011-05-17|HETZNER-AS, DE
176.9.86.53|24940|176.9.0.0/16|DE|ripencc|2011-05-17|HETZNER-AS, DE
178.150.96.46|13188|178.150.96.0/24|UA|ripencc|2010-04-15|TRIOLAN, UA
178.63.247.209|24940|178.63.0.0/16|DE|ripencc|2010-03-02|HETZNER-AS, DE
178.79.83.93|3212|178.79.64.0/18|SI|ripencc|2010-05-07|TELEMACH Broadband Access & Carrier Services, SI
18.198.93.234|16509|18.198.0.0/15|US|arin|2019-10-07|AMAZON-02, US
18.208.206.146|14618|18.208.0.0/13|US|arin|2019-10-07|AMAZON-AES, US
184.162.61.208|5769|184.162.0.0/18|CA|arin|2010-06-21|VIDEOTRON, CA
185.104.180.7|48881|185.104.180.0/22|RO|ripencc|2015-06-15|DATA-NODE-AS, RO
185.148.3.227|203003|185.148.0.0/22|FI|ripencc|2016-04-18|MAGNA-CAPAX, FI
185.17.112.17|61135|185.17.112.0/24|TR|ripencc|2013-01-29|COMNET-DATACENTER-ISTANBUL, TR
185.88.132.166|50941|185.88.132.0/24|TR|ripencc|2015-02-17|VARGONEN, TR
188.104.156.0|3209|188.96.0.0/12|DE|ripencc|2009-01-20|VODANET International IP-Backbone of Vodafone, DE
188.214.128.18|16125|188.214.128.0/21|LT|ripencc|2009-05-08|CHERRYSERVERS1-AS, LT
188.65.212.202|6719|188.65.208.0/21|RU|ripencc|2009-08-18|KNOPP-AS, RU
192.3.124.227|36352|192.3.124.0/24|US|arin|2013-06-07|AS-COLOCROSSING, US
194.193.149.245|7545|194.193.144.0/20|AU|apnic|1995-10-09|TPG-INTERNET-AP TPG Telecom Limited, AU
195.201.135.5|24940|195.201.0.0/16|DE|ripencc|1997-09-22|HETZNER-AS, DE
197.248.59.90|37061|197.248.59.0/24|KE|afrinic|2011-05-05|Safaricom, KE
2.133.176.135|9198|2.133.176.0/20|KZ|ripencc|2010-12-23|KAZTELECOM-AS, KZ
201.67.212.156|8167|201.67.192.0/18|BR|lacnic|2006-01-30|Brasil Telecom S/A - Filial Distrito Federal, BR
203.86.204.176|23655|203.86.200.0/21|NZ|apnic|2004-11-16|SNAP-NZ-AS Snap Internet Limited, NZ
204.111.241.195|4922|204.111.128.0/17|US|arin|1995-05-03|SHENTEL, US
204.195.63.205|11404|204.195.0.0/17|US|arin|2009-07-22|AS-WAVE-1, US
206.252.192.10|8002|206.252.192.0/19|US|arin|1996-08-12|STEALTH, US
206.252.192.8|8002|206.252.192.0/19|US|arin|1996-08-12|STEALTH, US
207.180.225.253|51167|207.180.224.0/23|DE|ripencc|1996-08-21|CONTABO, DE
209.131.236.105|393552|209.131.236.0/23|US|arin|2015-04-20|COL-LPC, US
210.187.236.219|4788|210.187.224.0/19|MY|apnic|2001-08-20|TMNET-AS-AP TM Net, Internet Service Provider, MY
212.8.250.141|49981|212.8.250.0/24|NL|ripencc|1999-09-22|WORLDSTREAM, NL
212.97.48.5|5602|212.97.32.0/19|IT|ripencc|1999-06-29|AS-IRIDEOS-KP, IT
213.135.95.157|198602|213.135.94.0/23|RU|ripencc|2000-04-05|NAUKANET, RU
24.113.137.192|11404|24.113.0.0/16|US|arin|2004-01-07|AS-WAVE-1, US
24.161.18.241|12271|24.161.0.0/17|US|arin|2000-06-09|TWC-12271-NYC, US
24.37.52.138|5769|24.37.0.0/18|CA|arin|2004-02-10|VIDEOTRON, CA
24.54.135.34|4181|24.54.135.0/24|US|arin|2009-04-28|TDS-AS, US
3.131.13.61|16509|3.131.0.0/16|US|arin|2018-06-25|AMAZON-02, US
3.97.201.205|16509|3.96.0.0/15|US|arin|2017-12-20|AMAZON-02, US
35.178.202.209|16509|35.178.0.0/15|US|arin|2016-08-09|AMAZON-02, US
35.198.162.31|15169|35.198.0.0/16|US|arin|2017-03-21|GOOGLE, US
35.240.252.177|15169|35.240.0.0/14|US|arin|2017-09-29|GOOGLE, US
37.235.223.44|41268|37.235.128.0/17|RU|ripencc|2012-04-16|LANTA-AS, RU
37.59.47.27|16276|37.59.0.0/16|FR|ripencc|2012-01-16|OVH, FR
37.97.249.17|20857|37.97.128.0/17|NL|ripencc|2012-02-02|TRANSIP-AS Amsterdam, the Netherlands, NL
45.128.190.21|43633|45.128.188.0/22|UA|ripencc|2019-07-12|UA-GIGABIT, UA
45.42.10.88|395570|45.42.8.0/22|CA|arin|2018-08-23|FIBRESTREAM, CA
47.244.44.239|45102|47.244.0.0/17|US|arin|2016-04-15|CNNIC-ALIBABA-US-NET-AP Alibaba (US) Technology Co., Ltd., CN
47.94.243.77|37963|47.94.0.0/15|CN|apnic|1989-01-06|CNNIC-ALIBABA-CN-NET-AP Hangzhou Alibaba Advertising Co.,Ltd., CN
5.102.146.99|59414|5.102.144.0/21|CH|ripencc|2012-06-27|CLOUDSCALE, CH
5.135.34.152|16276|5.135.0.0/16|FR|ripencc|2012-07-06|OVH, FR
5.9.104.23|24940|5.9.0.0/16|DE|ripencc|2012-04-25|HETZNER-AS, DE
50.115.47.50|18450|50.115.46.0/23|US|arin|2011-09-08|WEBNX, US
51.15.23.166|12876|51.15.0.0/17|FR|ripencc|1993-09-01|Online SAS, FR
51.15.39.117|12876|51.15.0.0/17|FR|ripencc|1993-09-01|Online SAS, FR
51.154.61.78|15796|51.154.0.0/16|CH|ripencc|1993-09-01|SALT-, CH
51.89.41.53|16276|51.89.0.0/16|FR|ripencc|1993-09-01|OVH, FR
54.183.250.50|16509|54.183.128.0/17|US|arin|2014-10-23|AMAZON-02, US
54.254.122.255|16509|54.254.0.0/17|US|arin|2012-03-01|AMAZON-02, US
61.172.10.173|4812|61.172.0.0/16|CN|apnic|2000-11-16|CHINANET-SH-AP China Telecom (Group), CN
62.210.222.73|12876|62.210.0.0/16|FR|ripencc|2000-10-26|Online SAS, FR
62.33.147.94|20485|62.33.0.0/16|RU|ripencc|2002-08-26|TRANSTELECOM Moscow, Russia, RU
64.225.45.81|14061|64.225.32.0/20|US|arin|2019-08-14|DIGITALOCEAN-ASN, US
68.168.176.51|10242|68.168.160.0/19|US|arin|2009-05-05|USINTERNET, US
68.199.157.183|6128|68.196.0.0/14|US|arin|2003-01-29|CABLE-NET-1, US
72.71.251.161|13672|72.71.192.0/18|US|arin|2005-06-24|FAIRPO-3, US
77.182.37.71|6805|77.176.0.0/12|DE|ripencc|2006-11-17|TDDE-ASN1, DE
77.242.84.34|41046|77.242.80.0/20|CZ|ripencc|2007-02-27|NEJTV-AS, CZ
78.194.158.141|12322|78.192.0.0/11|FR|ripencc|2007-03-15|PROXAD, FR
78.27.139.13|15683|78.27.128.0/18|UA|ripencc|2010-06-11|DOMASHKA-AS, UA
78.54.38.15|6805|78.48.0.0/13|DE|ripencc|2007-02-28|TDDE-ASN1, DE
78.72.228.239|3301|78.64.0.0/12|SE|ripencc|2007-03-09|TELIANET-SWEDEN Telia Company, SE
79.77.133.30|9105|79.76.0.0/15|GB|ripencc|2007-06-19|TISCALI-UK TalkTalk Communications Limited, GB
79.98.159.7|44065|79.98.152.0/21|CZ|ripencc|2007-11-06|NETAIR-AS, CZ
82.181.91.236|16086|82.181.0.0/16|FI|ripencc|2003-10-10|DNA, FI
83.150.56.145|8758|83.150.0.0/18|CH|ripencc|2004-03-16|IWAY, CH
85.212.237.98|12312|85.212.192.0/18|DE|ripencc|2005-02-22|ECOTEL, DE
85.228.232.171|2119|85.224.0.0/13|SE|ripencc|2004-12-17|TELENOR-NEXTEL Telenor Norge AS, NO
85.23.154.79|16086|85.23.0.0/16|FI|ripencc|2005-04-06|DNA, FI
85.9.3.35|5606|85.9.0.0/19|RO|ripencc|2005-02-11|GTS-BACKBONE GTS Telecom, RO
87.79.94.221|8422|87.78.0.0/15|DE|ripencc|2005-05-31|NETCOLOGNE, DE
88.198.16.108|24940|88.198.0.0/16|DE|ripencc|2005-12-27|HETZNER-AS, DE
88.89.159.22|2119|88.88.0.0/13|NO|ripencc|2005-11-25|TELENOR-NEXTEL Telenor Norge AS, NO
89.236.101.52|30798|89.236.64.0/18|FI|ripencc|2006-06-14|TNNET-AS TNNet Oy Main network, FI
89.252.30.107|31148|89.252.30.0/24|UA|ripencc|2006-08-01|FREENET_LLC, UA
89.47.12.240|34304|89.47.12.0/24|RO|ripencc|2005-11-29|TEENTELECOM, RO
91.215.91.254|48078|91.215.91.0/24|RU|ripencc|2009-07-21|DAGOMYS-AS, RU
91.237.77.5|198646|91.237.77.0/24|PL|ripencc|2012-03-21|INETHD-AS, PL
94.23.11.6|16276|94.23.0.0/16|FR|ripencc|2008-07-15|OVH, FR
95.110.234.93|31034|95.110.192.0/18|IT|ripencc|2008-12-18|ARUBA-ASN, IT
95.131.148.78|41275|95.131.144.0/21|RU|ripencc|2009-03-31|LEALTA-AS Moscow, Russia, RU
95.179.181.70|20473|95.179.176.0/20|US|ripencc|2009-01-22|AS-CHOOPA, US
95.211.189.3|60781|95.211.0.0/16|NL|ripencc|2009-02-05|LEASEWEB-NL-AMS-01 Netherlands, NL
95.217.62.34|24940|95.217.0.0/16|DE|ripencc|2009-02-24|HETZNER-AS, DE
96.224.58.144|701|96.224.0.0/16|US|arin|2006-12-29|UUNET, US
99.78.120.186|7018|99.78.64.0/18|US|arin|2008-02-25|ATT-INTERNET4, US
