# bitcoin dns seeds and whois results
IP Address|ASN|BGP Prefix|CC|Registry|Allocated|AS Name
104.238.220.199|23470|104.238.220.0/24|US|arin|2018-04-13|RELIABLESITE, US
105.233.37.163|36874|105.233.0.0/17|ZA|afrinic|2012-08-01|Cybersmart, ZA
109.201.140.9|43350|109.201.128.0/19|NL|ripencc|2010-02-12|NFORCE, NL
116.202.85.108|24940|116.202.0.0/16|DE|ripencc|2011-01-17|HETZNER-AS, DE
120.79.92.64|37963|120.79.0.0/16|CN|apnic|2008-03-27|CNNIC-ALIBABA-CN-NET-AP Hangzhou Alibaba Advertising Co.,Ltd., CN
13.231.223.46|16509|13.230.0.0/15|US|arin|2019-10-01|AMAZON-02, US
137.226.34.46|47610|137.226.0.0/16|DE|ripencc|1990-01-10|RWTH-AS, DE
138.197.233.230|14061|138.197.232.0/22|US|arin|2016-01-26|DIGITALOCEAN-ASN, US
139.159.152.237|55990|139.159.144.0/20|CN|apnic|2011-03-09|HWCSNET Huawei Cloud Service data center, CN
139.180.70.69|55850|139.180.64.0/18|NZ|apnic|1993-04-08|TRUSTPOWERLTD-AS-AP TrustPower Ltd, NZ
141.154.76.46|701|141.154.0.0/16|US|arin|1990-07-23|UUNET, US
143.89.60.134|3363|143.89.0.0/16|HK|apnic|1990-09-07|HKUST-AS-HK Hong Kong University of Science and Technology, HK
157.230.225.72|14061|157.230.224.0/20|US|arin|2018-08-22|DIGITALOCEAN-ASN, US
157.230.233.211|14061|157.230.224.0/20|US|arin|2018-08-22|DIGITALOCEAN-ASN, US
161.97.169.148|51167|161.97.160.0/20|DE|ripencc|1992-06-23|CONTABO, DE
165.227.163.238|14061|165.227.160.0/20|US|arin|2016-10-06|DIGITALOCEAN-ASN, US
165.227.173.181|14061|165.227.160.0/20|US|arin|2016-10-06|DIGITALOCEAN-ASN, US
173.249.53.194|51167|173.249.52.0/23|DE|ripencc|2010-05-26|CONTABO, DE
174.100.38.67|10796|174.100.0.0/16|US|arin|2009-02-26|TWC-10796-MIDWEST, US
176.9.52.190|24940|176.9.0.0/16|DE|ripencc|2011-05-17|HETZNER-AS, DE
178.132.2.246|49981|178.132.0.0/21|NL|ripencc|2011-09-28|WORLDSTREAM, NL
178.238.237.56|51167|178.238.236.0/23|DE|ripencc|2010-07-28|CONTABO, DE
178.79.83.93|3212|178.79.64.0/18|SI|ripencc|2010-05-07|TELEMACH Broadband Access & Carrier Services, SI
18.136.74.240|16509|18.136.0.0/16|US|arin|2019-10-07|AMAZON-02, US
18.156.64.16|16509|18.156.0.0/14|US|arin|2019-10-07|AMAZON-02, US
18.218.226.80|16509|18.216.0.0/14|US|arin|2019-10-07|AMAZON-02, US
18.228.10.250|16509|18.228.0.0/16|US|arin|2019-10-07|AMAZON-02, US
181.43.24.246|27651|181.43.24.0/24|CL|lacnic|2013-05-31|ENTEL CHILE S.A., CL
185.100.84.171|200651|185.100.84.0/23|SC|ripencc|2015-05-15|FLOKINET, SC
185.148.3.227|203003|185.148.0.0/22|FI|ripencc|2016-04-18|MAGNA-CAPAX, FI
185.153.196.240|49877|185.153.196.0/22|RU|ripencc|2016-05-24|RMINJINERING, RU
185.181.61.140|56655|185.181.60.0/22|NO|ripencc|2016-12-08|TERRAHOST, NO
185.198.16.16|62031|185.198.16.0/23|PL|ripencc|2017-04-05|SOWNET-AS, PL
185.238.128.48|206238|185.238.128.0/22|NL|ripencc|2017-12-22|FREEDOMINTERNET, NL
185.49.169.139|201746|185.49.169.0/24|ES|ripencc|2014-03-06|OLIVENET-AS, ES
193.210.230.141|1759|193.208.0.0/14|FI|ripencc|1993-12-20|TSF-IP-CORE Telia Finland Oyj, FI
193.234.50.227|200134|193.234.48.0/22|SE|ripencc|1993-09-01|IPCONNECT, FI
193.250.187.176|3215|193.250.0.0/16|FR|ripencc|1993-09-01|France Telecom - Orange, FR
195.154.80.155|12876|195.154.0.0/16|FR|ripencc|1996-08-27|Online SAS, FR
196.50.196.82|327782|196.50.192.0/18|ZA|afrinic|2017-03-01|METROFIBRE-NETWORX, ZA
198.84.175.4|5645|198.84.128.0/17|CA|arin|2012-07-23|TEKSAVVY, CA
201.242.192.195|8048|201.242.192.0/19|VE|lacnic|2005-04-22|CANTV Servicios, Venezuela, VE
204.15.11.8|13331|204.15.8.0/21|US|arin|2015-03-02|METAPEER-INC, US
206.189.63.80|14061|206.189.48.0/20|US|arin|1995-11-15|DIGITALOCEAN-ASN, US
210.54.39.190|4771|210.54.32.0/21|NZ|apnic|2000-05-11|SPARKNZ Spark New Zealand Trading Ltd., NZ
213.153.41.213|8445|213.153.32.0/19|AT|ripencc|2000-11-20|SALZBURG-AG-AS, AT
213.159.199.54|44845|213.159.199.0/24|RU|ripencc|2008-03-18|CIT, RU
217.119.121.123|31117|217.119.112.0/20|SK|ripencc|2004-03-02|ENERGOTEL-AS, SK
217.82.106.234|3320|217.80.0.0/12|DE|ripencc|2000-10-26|DTAG Internet service provider operations, DE
221.141.26.143|9318|221.140.0.0/14|KR|apnic|2003-05-30|SKB-AS SK Broadband Co Ltd, KR
23.114.235.154|7018|23.112.0.0/12|US|arin|2013-08-09|ATT-INTERNET4, US
24.116.153.115|11492|24.116.153.0/24|US|arin|1996-09-25|CABLEONE, US
24.182.175.169|20115|24.182.160.0/20|US|arin|2003-10-28|CHARTER-20115, US
3.112.22.239|16509|3.112.0.0/14|US|arin|2017-12-20|AMAZON-02, US
3.120.158.102|16509|3.120.0.0/14|US|arin|2017-12-20|AMAZON-02, US
3.250.188.245|16509|3.248.0.0/13|US|arin|2018-06-25|AMAZON-02, US
31.45.217.79|12810|31.45.128.0/17|HR|ripencc|2011-03-10|VIPNET-AS 3G/GSM and Internet Service Provider, HR
34.65.191.138|15169|34.64.0.0/14|US|arin|2018-09-28|GOOGLE, US
34.65.37.217|15169|34.64.0.0/14|US|arin|2018-09-28|GOOGLE, US
34.78.180.55|15169|34.76.0.0/14|US|arin|2018-09-28|GOOGLE, US
35.182.5.119|16509|35.182.0.0/15|US|arin|2016-08-09|AMAZON-02, US
35.183.127.110|16509|35.182.0.0/15|US|arin|2016-08-09|AMAZON-02, US
35.201.21.71|15169|35.200.0.0/14|US|arin|2017-03-21|GOOGLE, US
37.61.219.34|29066|37.61.208.0/20|DE|ripencc|2012-01-23|VELIANET-AS velia.net Internetdienste GmbH, DE
38.111.114.155|62563|38.111.114.0/24|US|arin|1991-04-16|AS-GLOBALTELEHOST, CA
38.242.18.254|64249|38.242.18.0/24|US|arin|1991-04-16|ENDOFFICE, US
4.16.58.146|3356|4.0.0.0/9|US|arin|1992-12-01|LEVEL3, US
45.78.129.145|11698|45.78.128.0/20|US|arin|2015-05-26|WIATEL, US
46.166.174.76|16125|46.166.168.0/21|LT|ripencc|2010-12-16|CHERRYSERVERS1-AS, LT
46.32.50.98|39642|46.32.32.0/19|DK|ripencc|2010-08-12|DK-ESS-AS, DK
46.8.181.132|137443|46.8.180.0/22|CZ|ripencc|2010-09-07|ANCHGLOBAL-AS-AP Anchnet Asia Limited, HK
47.242.63.115|45102|47.242.0.0/16|US|arin|2016-04-15|CNNIC-ALIBABA-US-NET-AP Alibaba (US) Technology Co., Ltd., CN
5.9.225.134|24940|5.9.0.0/16|DE|ripencc|2012-04-25|HETZNER-AS, DE
50.96.72.92|7029|50.96.0.0/16|US|arin|2011-03-11|WINDSTREAM, US
51.210.215.139|16276|51.210.0.0/16|FR|ripencc|1993-09-01|OVH, FR
52.195.16.107|16509|52.194.0.0/15|US|arin|2015-09-02|AMAZON-02, US
54.203.6.30|16509|54.202.0.0/15|US|arin|2014-10-23|AMAZON-02, US
54.232.29.198|16509|54.232.0.0/17|US|arin|2012-03-01|AMAZON-02, US
62.112.11.188|49981|62.112.8.0/22|NL|ripencc|1997-05-02|WORLDSTREAM, NL
62.210.6.33|12876|62.210.0.0/16|FR|ripencc|2000-10-26|Online SAS, FR
62.254.157.105|5089|62.254.128.0/18|GB|ripencc|1999-10-04|NTL, GB
65.21.77.219|24940|65.21.0.0/16|DE|ripencc|2001-09-26|HETZNER-AS, DE
66.194.38.42|35863|66.194.38.0/24|US|arin|2001-10-25|TELCO214US1, US
66.96.199.249|56300|66.96.199.0/24|SG|apnic|2001-11-01|MYREPUBLIC-SG MyRepublic Ltd., SG
69.59.18.22|397444|69.59.18.0/24|US|arin|2019-04-18|AS-OKI, US
73.240.62.20|7922|73.0.0.0/8|US|arin|2005-04-19|COMCAST-7922, US
77.11.56.73|6805|77.0.0.0/12|DE|ripencc|2006-11-21|TDDE-ASN1, DE
77.52.178.235|21497|77.52.128.0/17|UA|ripencc|2007-01-17|UMC-AS, UA
8.209.95.59|45102|8.209.64.0/19|SG|apnic|1992-12-01|CNNIC-ALIBABA-US-NET-AP Alibaba (US) Technology Co., Ltd., CN
80.195.198.125|5089|80.194.0.0/15|GB|ripencc|2001-09-26|NTL, GB
81.169.232.107|6724|81.169.128.0/17|DE|ripencc|2003-04-17|STRATO STRATO AG, DE
81.28.248.132|200276|81.28.248.0/24|ME|ripencc|2018-08-17|BEENET-AS, ME
81.7.17.202|35366|81.7.0.0/19|DE|ripencc|2009-09-18|ISPPRO-AS ISPPRO-AS covers the networks of ISPpro, DE
82.116.50.101|30936|82.116.32.0/19|RU|ripencc|2004-01-20|RENET-COM-AS RENET COM Autonomous System, RU
82.176.164.40|15542|82.176.0.0/16|NL|ripencc|2003-08-26|ZEELANDNET DELTA Fiber Nederland, NL
82.202.68.231|25512|82.202.64.0/18|CZ|ripencc|2003-09-23|CDT-AS The Czech Republic, CZ
84.17.54.71|60068|84.17.54.0/23|GB|ripencc|2004-07-23|CDN77 (^_^)/, GB
84.80.143.197|1136|84.80.0.0/13|NL|ripencc|2004-03-17|KPN KPN National, NL
85.220.190.246|25394|85.220.128.0/17|DE|ripencc|2005-02-07|MK-NETZDIENSTE-AS, DE
87.169.214.80|3320|87.128.0.0/10|DE|ripencc|2006-03-30|DTAG Internet service provider operations, DE
88.115.110.150|719|88.112.0.0/14|FI|ripencc|2006-07-20|ELISA-AS Helsinki, Finland, FI
88.132.163.247|35311|88.132.160.0/19|HU|ripencc|2005-10-26|PR-TELECOM-AS, HU
88.207.127.200|31012|88.207.0.0/17|HR|ripencc|2005-12-14|DCM-AS Vipnet d.o.o., HR
88.212.55.138|42841|88.212.48.0/20|SK|ripencc|2005-12-08|ANTIK, SK
88.24.132.208|3352|88.24.0.0/16|ES|ripencc|2005-07-13|TELEFONICA_DE_ESPANA, ES
88.86.125.50|39392|88.86.96.0/19|CZ|ripencc|2006-02-14|SUPERNETWORK (^_^)/, CZ
89.238.77.110|34240|89.238.64.0/18|DE|ripencc|2006-07-21|MANITU, DE
90.187.75.113|3209|90.187.0.0/16|DE|ripencc|2006-11-09|VODANET International IP-Backbone of Vodafone, DE
91.209.51.131|48239|91.209.51.0/24|UA|ripencc|2008-10-22|ITTV-AS Kiev, Ukraine, UA
91.210.24.30|48078|91.210.24.0/24|RU|ripencc|2008-10-08|DAGOMYS-AS, RU
91.211.89.54|206638|91.211.89.0/24|UA|ripencc|2018-04-20|HOSTFORY, UA
93.179.197.152|31242|93.179.192.0/18|PL|ripencc|2008-04-14|TKPSA-AS, PL
94.130.153.226|24940|94.130.0.0/16|DE|ripencc|2008-06-23|HETZNER-AS, DE
95.110.234.93|31034|95.110.192.0/18|IT|ripencc|2008-12-18|ARUBA-ASN, IT
95.216.7.175|24940|95.216.0.0/16|DE|ripencc|2009-02-24|HETZNER-AS, DE
98.115.159.208|701|98.115.0.0/16|US|arin|2008-04-02|UUNET, US
98.32.83.73|7922|98.32.0.0/11|US|arin|2007-06-06|COMCAST-7922, US
99.78.120.186|7018|99.78.64.0/18|US|arin|2008-02-25|ATT-INTERNET4, US
