# bitcoin dns seeds and whois results
IP Address|ASN|BGP Prefix|CC|Registry|Allocated|AS Name
104.13.168.146|7018|104.0.0.0/12|US|arin|2014-01-16|ATT-INTERNET4, US
104.238.233.63|21559|104.238.232.0/23|PR|arin|2018-04-04|OSNET, PR
107.219.74.135|7018|107.208.0.0/12|US|arin|2012-04-25|ATT-INTERNET4, US
108.234.193.108|7018|108.192.0.0/10|US|arin|2011-01-12|ATT-INTERNET4, US
124.35.95.140|17506|124.32.0.0/14|JP|apnic|2005-12-21|UCOM ARTERIA Networks Corporation, JP
13.115.95.157|16509|13.112.0.0/14|US|arin|2016-08-09|AMAZON-02, US
13.212.217.254|16509|13.212.0.0/15|US|arin|2019-10-01|AMAZON-02, US
13.236.100.67|16509|13.236.0.0/14|US|arin|2019-10-01|AMAZON-02, US
13.239.12.139|16509|13.236.0.0/14|US|arin|2019-10-01|AMAZON-02, US
13.48.1.3|16509|13.48.0.0/15|US|arin|2020-08-05|AMAZON-02, US
136.58.99.43|16591|136.58.96.0/20|US|arin|2015-10-06|GOOGLE-FIBER, US
138.75.93.184|4773|138.75.64.0/18|SG|apnic|1990-03-02|MOBILEONELTD-AS-AP MobileOne Ltd. Mobile/Internet Service Provider Singapore, SG
143.59.248.153|12083|143.59.0.0/16|US|arin|2018-04-27|WOW-INTERNET, US
15.228.87.193|16509|15.228.0.0/15|US|arin|2019-03-26|AMAZON-02, US
15.237.106.19|16509|15.236.0.0/15|US|arin|2018-09-27|AMAZON-02, US
161.97.175.78|51167|161.97.160.0/20|DE|ripencc|1992-06-23|CONTABO, DE
162.244.80.208|19624|162.244.80.0/24|US|arin|2014-03-07|SERVERROOM, US
163.172.179.243|12876|163.172.0.0/16|GB|ripencc|1992-02-14|Online SAS, FR
167.172.42.30|14061|167.172.32.0/20|US|ripencc|1993-08-30|DIGITALOCEAN-ASN, US
168.119.169.2|24940|168.119.0.0/16|DE|ripencc|1994-04-05|HETZNER-AS, DE
170.250.84.130|23089|170.250.0.0/17|US|arin|2015-11-02|HOTWIRE-COMMUNICATIONS, US
172.104.173.214|63949|172.104.160.0/19|US|arin|2015-06-19|LINODE-AP Linode, LLC, US
173.182.141.159|852|173.182.128.0/18|CA|arin|2009-06-09|TELUS Communications, CA
176.31.224.214|16276|176.31.0.0/16|FR|ripencc|2011-05-20|OVH, FR
176.74.136.237|35613|176.74.128.0/19|CZ|ripencc|2011-06-15|NETDATACOMM, CZ
176.9.106.79|24940|176.9.0.0/16|DE|ripencc|2011-05-17|HETZNER-AS, DE
176.9.156.51|24940|176.9.0.0/16|DE|ripencc|2011-05-17|HETZNER-AS, DE
177.92.32.178|14868|177.92.32.0/19|BR|lacnic|2014-04-24|COPEL Telecomunicacoes S.A., BR
178.79.83.93|3212|178.79.64.0/18|SI|ripencc|2010-05-07|TELEMACH Broadband Access & Carrier Services, SI
18.162.133.34|16509|18.162.0.0/16|US|arin|2019-10-07|AMAZON-02, US
18.166.226.142|16509|18.166.0.0/15|US|arin|2019-10-07|AMAZON-02, US
18.167.172.162|16509|18.166.0.0/15|US|arin|2019-10-07|AMAZON-02, US
180.215.214.77|64050|180.215.214.0/24|SG|apnic|2009-10-01|BCPL-SG BGPNET Global ASN, SG
184.171.208.109|40788|184.171.208.0/20|CA|arin|2010-10-19|START-, CA
184.70.175.38|6327|184.70.160.0/19|CA|arin|2010-01-15|SHAW, CA
184.96.128.205|209|184.96.0.0/16|US|arin|2010-04-06|CENTURYLINK-US-LEGACY-QWEST, US
185.209.162.108|14576|185.209.162.0/24|NL|ripencc|2017-06-22|HOSTING-SOLUTIONS, US
185.210.68.10|13030|185.210.68.0/24|CH|ripencc|2017-06-27|INIT7, CH
185.30.247.169|197722|185.30.244.0/22|ES|ripencc|2013-07-18|TELECABLEANDALUCIA-AS, ES
186.32.212.112|262197|186.32.212.0/23|CR|lacnic|2011-06-24|MILLICOM CABLE COSTA RICA S.A., CR
188.166.250.4|14061|188.166.240.0/20|US|ripencc|2009-06-05|DIGITALOCEAN-ASN, US
194.26.29.152|206728|194.26.29.0/24|RU|ripencc|2019-11-20|MEDIALAND-AS, RU
195.201.135.5|24940|195.201.0.0/16|DE|ripencc|1997-09-22|HETZNER-AS, DE
197.248.59.90|37061|197.248.59.0/24|KE|afrinic|2011-05-05|Safaricom, KE
198.12.14.136|40065|198.12.14.0/24|US|arin|2012-10-29|CNSERVERS, US
204.195.63.205|11404|204.195.0.0/17|US|arin|2009-07-22|AS-WAVE-1, US
206.123.128.176|396362|206.123.128.0/24|US|arin|2015-03-09|LEASEWEB-USA-NYC-11, US
206.198.196.82|19693|206.198.196.0/23|US|arin|2018-01-12|CENTRILOGIC-ASN, US
207.55.53.96|12044|207.55.48.0/20|US|arin|1996-02-22|WVINET, US
208.69.42.145|32329|208.69.40.0/22|US|arin|2006-07-28|MONKEYBRAINS, US
209.222.101.217|23470|209.222.101.0/24|US|arin|2015-10-02|RELIABLESITE, US
209.240.50.128|36515|209.240.48.0/20|US|arin|2005-09-09|ASN-ALLENS, US
212.91.163.140|8717|212.91.160.0/19|BG|ripencc|1999-07-30|A1, BG
213.174.156.73|39572|213.174.128.0/19|NL|ripencc|2008-01-17|ADVANCEDHOSTERS-AS, NL
216.226.128.189|13706|216.226.128.0/24|US|arin|1999-05-13|COMPLETEWEBNET, US
216.8.151.228|7057|216.8.128.0/19|CA|arin|2001-01-04|MANAGEDNETWORK, CA
24.134.6.165|3209|24.134.0.0/16|DE|ripencc|2012-04-25|VODANET International IP-Backbone of Vodafone, DE
3.210.177.194|14618|3.208.0.0/12|US|arin|2018-06-25|AMAZON-AES, US
3.213.143.29|14618|3.208.0.0/12|US|arin|2018-06-25|AMAZON-AES, US
31.164.120.15|6730|31.164.0.0/15|CH|ripencc|2011-02-23|SUNRISE, CH
31.47.202.112|34385|31.47.200.0/21|SE|ripencc|2011-03-22|TRIPNET, SE
34.126.107.179|15169|34.124.0.0/14|US|arin|2018-09-28|GOOGLE, US
34.65.45.157|15169|34.64.0.0/14|US|arin|2018-09-28|GOOGLE, US
34.87.53.100|15169|34.84.0.0/14|US|arin|2018-09-28|GOOGLE, US
38.111.114.155|62563|38.111.114.0/24|US|arin|1991-04-16|AS-GLOBALTELEHOST, CA
39.107.234.140|37963|39.106.0.0/15|CN|apnic|2011-04-05|CNNIC-ALIBABA-CN-NET-AP Hangzhou Alibaba Advertising Co.,Ltd., CN
42.192.42.126|45090|42.192.0.0/18|CN|apnic|2011-03-04|CNNIC-TENCENT-NET-AP Shenzhen Tencent Computer Systems Company Limited, CN
46.4.87.133|24940|46.4.0.0/16|DE|ripencc|2010-08-19|HETZNER-AS, DE
47.108.114.174|37963|47.108.0.0/16|CN|apnic|1989-01-06|CNNIC-ALIBABA-CN-NET-AP Hangzhou Alibaba Advertising Co.,Ltd., CN
47.108.51.141|37963|47.108.0.0/16|CN|apnic|1989-01-06|CNNIC-ALIBABA-CN-NET-AP Hangzhou Alibaba Advertising Co.,Ltd., CN
47.245.52.169|45102|47.245.48.0/20|US|arin|2016-04-15|CNNIC-ALIBABA-US-NET-AP Alibaba (US) Technology Co., Ltd., CN
47.54.212.200|855|47.54.212.0/22|CA|arin|2012-04-09|CANET-ASN-4, CA
5.188.56.56|49505|5.188.56.0/22|RU|ripencc|2012-08-09|SELECTEL, RU
5.189.128.45|51167|5.189.128.0/20|DE|ripencc|2012-08-09|CONTABO, DE
5.196.69.107|16276|5.196.0.0/16|FR|ripencc|2012-08-23|OVH, FR
51.159.57.97|12876|51.158.0.0/15|FR|ripencc|1993-09-01|Online SAS, FR
51.255.85.180|16276|51.254.0.0/15|FR|ripencc|1993-09-01|OVH, FR
59.1.12.35|4766|59.0.0.0/13|KR|apnic|2004-08-02|KIXS-AS-KR Korea Telecom, KR
61.244.144.186|9269|61.244.128.0/18|HK|apnic|2004-04-15|HKBN-AS-AP Hong Kong Broadband Network Ltd., HK
61.92.120.41|9269|61.92.64.0/18|HK|apnic|2001-11-23|HKBN-AS-AP Hong Kong Broadband Network Ltd., HK
62.171.159.92|51167|62.171.158.0/23|DE|ripencc|2000-08-18|CONTABO, DE
62.210.103.45|12876|62.210.0.0/16|FR|ripencc|2000-10-26|Online SAS, FR
64.111.121.119|26347|64.111.96.0/19|US|arin|2005-03-07|DREAMHOST-AS, US
66.194.38.42|35863|66.194.38.0/24|US|arin|2001-10-25|TELCO214US1, US
73.173.182.222|7922|73.0.0.0/8|US|arin|2005-04-19|COMCAST-7922, US
74.140.9.169|10796|74.128.0.0/12|US|arin|2006-04-07|TWC-10796-MIDWEST, US
77.163.105.152|1136|77.160.0.0/13|NL|ripencc|2006-11-02|KPN KPN National, NL
77.180.136.210|6805|77.176.0.0/12|DE|ripencc|2006-11-17|TDDE-ASN1, DE
77.93.223.9|24971|77.93.192.0/19|CZ|ripencc|2007-05-18|MASTER-AS Czech Republic / www.master.cz, CZ
78.108.102.8|8251|78.108.96.0/20|CZ|ripencc|2007-06-18|NFX_ZSPO, CZ
79.101.1.25|8400|79.101.0.0/16|RS|ripencc|2007-11-12|TELEKOM-AS, RS
79.226.245.254|3320|79.192.0.0/10|DE|ripencc|2007-06-06|DTAG Internet service provider operations, DE
8.210.214.87|45102|8.210.128.0/17|SG|apnic|1992-12-01|CNNIC-ALIBABA-US-NET-AP Alibaba (US) Technology Co., Ltd., CN
80.140.80.31|3320|80.128.0.0/12|DE|ripencc|2001-08-06|DTAG Internet service provider operations, DE
81.221.247.244|1836|81.221.0.0/16|CH|ripencc|2002-11-26|GREEN green.ch AG Autonomous System, CH
82.116.50.101|30936|82.116.32.0/19|RU|ripencc|2004-01-20|RENET-COM-AS RENET COM Autonomous System, RU
82.65.13.159|12322|82.64.0.0/14|FR|ripencc|2003-04-03|PROXAD, FR
82.71.47.216|13037|82.68.0.0/14|GB|ripencc|2003-04-28|ZEN-AS Zen Internet - UK, GB
83.137.41.10|31394|83.137.40.0/21|AT|ripencc|2004-05-03|NEMOX-NET-AS, AT
84.17.54.71|60068|84.17.54.0/23|GB|ripencc|2004-07-23|CDN77 (^_^)/, GB
85.26.39.69|12392|85.26.32.0/20|BE|ripencc|2005-03-09|ASBRUTELE VOO, BE
87.179.197.169|3320|87.128.0.0/10|DE|ripencc|2006-03-30|DTAG Internet service provider operations, DE
87.246.46.132|43561|87.246.46.0/23|BG|ripencc|2005-08-25|NET1-AS, BG
90.43.165.154|3215|90.43.0.0/16|FR|ripencc|2006-03-02|France Telecom - Orange, FR
91.178.125.244|5432|91.176.0.0/14|BE|ripencc|2006-09-04|PROXIMUS-ISP-AS, BE
91.193.237.116|42916|91.193.236.0/23|RU|ripencc|2007-05-09|IT-AS, RU
91.224.20.71|60562|91.224.20.0/23|IR|ripencc|2019-10-03|BEHDASHT-IT, IR
92.188.122.55|8362|92.188.64.0/18|FR|ripencc|2007-07-12|20 rue Denis Papin, FR
92.247.155.133|8717|92.247.0.0/16|BG|ripencc|2008-04-18|A1, BG
92.42.37.141|49467|92.42.37.0/24|TR|ripencc|2009-06-15|EUROTA-ASN EUROTA INTERNET SERVICES LTD, TR
93.104.89.90|8767|93.104.0.0/16|DE|ripencc|2008-03-18|MNET-AS Germany, DE
93.179.197.152|31242|93.179.192.0/18|PL|ripencc|2008-04-14|TKPSA-AS, PL
94.130.131.239|24940|94.130.0.0/16|DE|ripencc|2008-06-23|HETZNER-AS, DE
95.110.133.223|31034|95.110.128.0/21|IT|ripencc|2008-12-18|ARUBA-ASN, IT
95.182.113.34|48780|95.182.112.0/23|CZ|ripencc|2009-02-05|ROSTELECOM-AS, CZ
95.211.82.207|60781|95.211.0.0/16|NL|ripencc|2009-02-05|LEASEWEB-NL-AMS-01 Netherlands, NL
95.217.10.167|24940|95.217.0.0/16|DE|ripencc|2009-02-24|HETZNER-AS, DE
95.217.35.79|24940|95.217.0.0/16|DE|ripencc|2009-02-24|HETZNER-AS, DE
97.92.0.182|20115|97.92.0.0/19|US|arin|2007-03-21|CHARTER-20115, US
