# bitcoin dns seeds and whois results
IP Address|ASN|BGP Prefix|CC|Registry|Allocated|AS Name
101.98.167.205|9790|101.98.0.0/16|NZ|apnic|2010-12-22|VOCUSGROUPNZ VocusGroup, NZ
108.27.72.140|701|108.27.0.0/16|US|arin|2009-06-05|UUNET, US
110.32.136.131|4804|110.32.128.0/17|AU|apnic|2009-02-24|MPX-AS Microplex PTY LTD, AU
110.92.64.163|133115|110.92.64.0/24|HK|apnic|2015-11-19|HKKFGL-AS-AP HK Kwaifong Group Limited, HK
112.124.8.214|37963|112.124.0.0/17|CN|apnic|2009-01-22|CNNIC-ALIBABA-CN-NET-AP Hangzhou Alibaba Advertising Co.,Ltd., CN
114.23.122.174|56030|114.23.0.0/16|NZ|apnic|2011-01-10|VOYAGERNET-AS-AP Voyager Internet Ltd., NZ
128.2.12.38|9|128.2.0.0/16|US|arin|1984-04-17|CMU-ROUTER, US
13.115.247.80|16509|13.112.0.0/14|US|arin|2016-08-09|AMAZON-02, US
13.210.184.202|16509|13.210.0.0/15|US|arin|2019-10-01|AMAZON-02, US
135.181.216.222|24940|135.181.0.0/16|DE|ripencc|1996-04-30|HETZNER-AS, DE
137.226.34.46|47610|137.226.0.0/16|DE|ripencc|1990-01-10|RWTH-AS, DE
137.74.0.3|16276|137.74.0.0/16|FR|ripencc|1988-11-23|OVH, FR
141.193.158.218|45753|141.193.158.0/24|HK|apnic|1990-07-27|NETSEC-HK NETSEC, HK
142.91.11.100|7979|142.91.11.0/24|NL|ripencc|2012-06-08|SERVERS-COM, US
147.135.65.180|16276|147.135.0.0/17|US|arin|2017-03-22|OVH, FR
147.229.146.52|197451|147.229.128.0/18|CZ|ripencc|1993-01-11|VUTBR-AS, CZ
148.251.237.73|24940|148.251.0.0/16|DE|ripencc|1993-09-01|HETZNER-AS, DE
149.71.73.71|48945|149.71.64.0/20|US|arin|1992-01-28|IFNL-AS, GB
151.248.220.62|8821|151.248.128.0/17|CH|ripencc|2012-08-17|TELEZUG WWZ Telekom AG (TELEZUG), CH
151.40.145.60|1267|151.40.0.0/16|IT|ripencc|1991-05-13|ASN-WINDTRE IUNET, IT
153.92.93.114|41998|153.92.80.0/20|DE|ripencc|1991-09-23|NETCOMBW-AS, DE
158.181.153.211|41750|158.181.144.0/20|KG|ripencc|2011-11-10|AS-MEGALINE-, KG
162.55.91.136|24940|162.55.0.0/16|DE|ripencc|1992-08-03|HETZNER-AS, DE
164.68.119.129|51167|164.68.118.0/23|DE|ripencc|1992-12-17|CONTABO, DE
172.103.217.236|25668|172.103.128.0/17|CA|arin|2015-06-22|CIPHERKEY, CA
173.47.158.170|11492|173.47.158.0/24|US|arin|2008-10-22|CABLEONE, US
176.10.48.224|196968|176.10.48.0/21|DE|ripencc|2011-05-18|ILM-PROVIDER-AS, DE
176.99.6.226|49352|176.99.6.0/24|RU|ripencc|2012-06-26|LOGOL-AS, RU
178.78.243.147|33885|178.78.192.0/18|SE|ripencc|2010-04-28|OWNIT Katarinavagen 15, SE
178.79.83.93|3212|178.79.64.0/18|SI|ripencc|2010-05-07|TELEMACH Broadband Access & Carrier Services, SI
18.228.0.28|16509|18.228.0.0/16|US|arin|2019-10-07|AMAZON-02, US
180.175.129.3|4812|180.175.0.0/16|CN|apnic|2009-08-21|CHINANET-SH-AP China Telecom (Group), CN
184.105.70.100|6939|184.104.0.0/15|US|arin|2010-05-10|HURRICANE, US
185.186.208.163|206428|185.186.208.0/22|BY|ripencc|2017-01-20|MEGADATA-AS, BY
185.5.55.219|62282|185.5.52.0/22|LT|ripencc|2012-10-01|RACKRAY UAB Rakrejus, LT
185.80.219.133|59702|185.80.216.0/22|SE|ripencc|2014-12-10|JUNET, SE
186.32.212.112|262197|186.32.212.0/23|CR|lacnic|2011-06-24|MILLICOM CABLE COSTA RICA S.A., CR
188.166.190.154|14061|188.166.176.0/20|US|ripencc|2009-06-05|DIGITALOCEAN-ASN, US
188.166.250.4|14061|188.166.240.0/20|US|ripencc|2009-06-05|DIGITALOCEAN-ASN, US
190.104.249.44|11014|190.104.249.0/24|AR|lacnic|2012-03-23|CPS, AR
190.215.121.121|18822|190.215.121.0/24|CL|lacnic|2010-08-18|Manquehuenet, CL
193.58.196.212|5578|193.58.196.0/23|SK|ripencc|1997-01-21|AS-BENESTRA Bratislava, Slovak Republic, SK
198.137.202.175|7247|198.137.202.0/24|US|arin|1993-05-17|MOJO, US
198.48.225.34|5645|198.48.128.0/17|CA|arin|2013-03-04|TEKSAVVY, CA
199.164.166.140|393507|199.164.166.0/24|US|arin|1994-03-15|GUSHISYS, US
2.133.176.135|9198|2.133.176.0/20|KZ|ripencc|2010-12-23|KAZTELECOM-AS, KZ
202.184.3.8|9930|202.184.0.0/18|MY|apnic|1995-10-09|TTNET-MY TIME dotCom Berhad No. 14, Jalan Majistret U1/26 Hicom Glenmarie Industrial Park 40150 Shah Alam Selangor, Malaysia, MY
206.189.16.138|14061|206.189.16.0/20|US|arin|1995-11-15|DIGITALOCEAN-ASN, US
208.73.1.142|31953|208.73.0.0/22|US|arin|2006-11-30|ACTIVESERVE-AS, US
212.62.223.46|21263|212.62.192.0/19|DE|ripencc|1998-08-21|TELEDATA-AS TeleData GmbH, DE
213.89.131.53|39651|213.89.0.0/16|SE|ripencc|2000-12-27|TELE2-FIXED-SWEDEN, SE
217.160.14.245|8560|217.160.0.0/16|DE|ripencc|2001-03-07|IONOS-AS This is the joint network for IONOS, Fasthosts, Arsys, 1&1 Mail and Media and 1&1 Telecom. Formerly known as 1&1 Internet SE., DE
217.182.174.139|16276|217.182.0.0/16|FR|ripencc|2001-03-02|OVH, FR
217.19.216.210|1547|217.19.216.0/24|MD|ripencc|2003-01-24|IDK-NETWORK, MD
217.92.55.246|3320|217.80.0.0/12|DE|ripencc|2000-10-26|DTAG Internet service provider operations, DE
218.212.112.136|55430|218.212.64.0/18|SG|apnic|2003-04-17|STARHUB-NGNBN Starhub Ltd, SG
220.240.134.231|7545|220.240.134.0/24|AU|apnic|2003-04-30|TPG-INTERNET-AP TPG Telecom Limited, AU
220.245.129.177|7545|220.245.128.0/23|AU|apnic|2004-02-05|TPG-INTERNET-AP TPG Telecom Limited, AU
23.114.194.58|7018|23.112.0.0/12|US|arin|2013-08-09|ATT-INTERNET4, US
23.226.1.76|23881|23.226.1.0/24|HK|apnic|2013-09-09|UDOMAIN-AS-AP UDomain Web Hosting Company Ltd, HK
24.12.6.131|7922|24.0.0.0/12|US|arin|2003-10-06|COMCAST-7922, US
24.184.0.146|6128|24.184.0.0/14|US|arin|2000-12-12|CABLE-NET-1, US
34.210.115.53|16509|34.208.0.0/12|US|arin|2016-09-12|AMAZON-02, US
34.86.80.233|15169|34.84.0.0/14|US|arin|2018-09-28|GOOGLE, US
35.155.204.42|16509|35.155.0.0/16|US|arin|2016-08-09|AMAZON-02, US
35.212.233.154|15169|35.212.128.0/17|US|arin|2017-09-29|GOOGLE, US
35.244.67.121|15169|35.244.0.0/14|US|arin|2017-09-29|GOOGLE, US
38.87.54.163|174|38.0.0.0/8|US|arin|1991-04-16|COGENT-174, US
45.77.152.50|20473|45.77.144.0/20|US|arin|2015-04-24|AS-CHOOPA, US
46.126.217.197|6830|46.126.0.0/16|CH|ripencc|2010-06-01|LIBERTYGLOBAL Liberty Global (formerly UPC Broadband Holding, aka AORTA), NL
46.160.202.162|33993|46.160.200.0/21|RU|ripencc|2010-11-15|ELSITE-AS Elsite network, RU
46.29.20.203|197226|46.29.16.0/21|PL|ripencc|2010-08-02|SPRINT-SDC, PL
46.30.165.147|25521|46.30.160.0/21|UA|ripencc|2010-09-03|ASN-ASIPN, UA
46.32.50.98|39642|46.32.32.0/19|DK|ripencc|2010-08-12|DK-ESS-AS, DK
47.242.239.96|45102|47.242.0.0/16|US|arin|2016-04-15|CNNIC-ALIBABA-US-NET-AP Alibaba (US) Technology Co., Ltd., CN
47.242.87.227|45102|47.242.0.0/16|US|arin|2016-04-15|CNNIC-ALIBABA-US-NET-AP Alibaba (US) Technology Co., Ltd., CN
49.146.67.144|9299|49.146.64.0/19|PH|apnic|2010-11-22|IPG-AS-AP Philippine Long Distance Telephone Company, PH
49.232.197.54|45090|49.232.192.0/20|CN|apnic|2010-11-26|CNNIC-TENCENT-NET-AP Shenzhen Tencent Computer Systems Company Limited, CN
5.188.156.67|49505|5.188.156.0/23|RU|ripencc|2012-08-09|SELECTEL, RU
50.112.39.196|16509|50.112.0.0/17|US|arin|2011-05-23|AMAZON-02, US
52.169.224.12|8075|52.160.0.0/11|US|arin|2015-11-24|MICROSOFT-CORP-MSN-AS-BLOCK, US
52.205.206.62|14618|52.200.0.0/13|US|arin|2015-09-02|AMAZON-AES, US
52.54.44.109|14618|52.54.0.0/15|US|arin|1991-12-19|AMAZON-AES, US
54.168.197.87|16509|54.168.0.0/16|US|arin|2014-10-23|AMAZON-02, US
54.189.184.168|16509|54.188.0.0/15|US|arin|2014-10-23|AMAZON-02, US
54.213.65.91|16509|54.213.0.0/16|US|arin|2014-10-23|AMAZON-02, US
54.37.81.191|16276|54.37.0.0/16|FR|ripencc|1992-03-17|OVH, FR
58.246.136.250|17621|58.246.0.0/16|CN|apnic|2005-06-16|CNCGROUP-SH China Unicom Shanghai network, CN
62.107.200.30|197288|62.107.0.0/16|DK|ripencc|2001-06-22|STOFANET, DK
63.250.36.100|22612|63.250.36.0/24|US|arin|2019-07-16|NAMECHEAP-NET, US
64.201.87.233|21555|64.201.80.0/21|US|arin|2007-01-09|LHTC, US
65.128.2.215|209|65.128.0.0/16|US|arin|2000-08-23|CENTURYLINK-US-LEGACY-QWEST, US
66.251.201.18|3356|66.251.201.0/24|US|arin|2005-05-18|LEVEL3, US
67.191.138.29|7922|67.160.0.0/11|US|arin|2002-12-16|COMCAST-7922, US
67.227.167.130|32244|67.227.128.0/17|US|arin|2008-01-23|LIQUIDWEB, US
70.68.70.171|6327|70.68.68.0/22|CA|arin|2004-06-18|SHAW, CA
72.35.158.38|4181|72.35.128.0/19|US|arin|2005-04-29|TDS-AS, US
74.137.220.142|10796|74.128.0.0/12|US|arin|2006-04-07|TWC-10796-MIDWEST, US
74.220.255.190|23175|74.220.254.0/23|US|arin|2008-07-24|POGOZONE, US
75.97.59.1|3737|75.97.0.0/16|US|arin|2009-01-30|AS-PTD, US
78.35.83.221|8422|78.34.0.0/15|DE|ripencc|2007-03-08|NETCOLOGNE, DE
78.46.78.206|24940|78.46.0.0/15|DE|ripencc|2007-04-16|HETZNER-AS, DE
79.98.159.7|44065|79.98.152.0/21|CZ|ripencc|2007-11-06|NETAIR-AS, CZ
80.87.196.14|29182|80.87.196.0/23|RU|ripencc|2001-08-27|THEFIRST-AS, RU
81.7.16.182|35366|81.7.0.0/19|DE|ripencc|2009-09-18|ISPPRO-AS ISPPRO-AS covers the networks of ISPpro, DE
83.160.52.153|3265|83.160.0.0/14|NL|ripencc|2004-03-03|XS4ALL-NL Amsterdam, NL
83.99.247.25|24651|83.99.128.0/17|LV|ripencc|2004-01-27|LVBALTICOM-AS, LV
86.24.166.3|5089|86.24.0.0/13|GB|ripencc|2005-03-29|NTL, GB
89.179.246.176|8402|89.178.0.0/15|RU|ripencc|2006-03-22|CORBINA-AS OJSC _Vimpelcom_, RU
89.240.74.198|13285|89.240.0.0/16|GB|ripencc|2006-04-27|OPALTELECOM-AS TalkTalk Communications Limited, GB
89.56.21.82|207790|89.56.0.0/16|DE|ripencc|2005-11-23|SWNNMS, DE
94.112.132.191|16019|94.112.0.0/16|CZ|ripencc|2008-07-09|VODAFONE-CZ-AS, CZ
95.216.78.249|24940|95.216.0.0/16|DE|ripencc|2009-02-24|HETZNER-AS, DE
96.252.37.32|701|96.252.0.0/17|US|arin|2006-12-29|UUNET, US
97.124.48.160|209|97.124.0.0/16|US|arin|2007-12-19|CENTURYLINK-US-LEGACY-QWEST, US
98.144.99.202|10796|98.144.0.0/16|US|arin|2007-12-18|TWC-10796-MIDWEST, US
99.24.222.150|7018|99.16.0.0/12|US|arin|2008-02-25|ATT-INTERNET4, US
99.79.74.229|16509|99.79.0.0/16|US|arin|2018-01-10|AMAZON-02, US
