# bitcoin dns seeds and whois results
IP Address|ASN|BGP Prefix|CC|Registry|Allocated|AS Name
103.99.170.220|54415|103.99.170.0/24|JP|apnic|2017-08-28|WIZ-JP-AS-AP WIZ K.K., JP
108.4.212.83|701|108.4.192.0/18|US|arin|2009-06-05|UUNET, US
109.123.213.130|21430|109.123.212.0/23|CZ|ripencc|2009-10-20|WIA-AS, CZ
109.134.163.230|5432|109.132.0.0/14|BE|ripencc|2009-07-27|PROXIMUS-ISP-AS, BE
113.254.2.70|9304|113.254.0.0/18|HK|apnic|2008-12-18|HUTCHISON-AS-AP HGC Global Communications Limited, HK
124.114.200.186|4134|124.114.0.0/15|CN|apnic|2006-03-31|CHINANET-BACKBONE No.31,Jin-rong Street, CN
13.229.150.245|16509|13.228.0.0/15|US|arin|2019-10-01|AMAZON-02, US
13.48.45.12|16509|13.48.0.0/15|US|arin|2020-08-05|AMAZON-02, US
132.204.108.155|376|132.204.0.0/16|CA|arin|1989-06-14|RISQ-AS, CA
136.33.185.32|16591|136.33.176.0/20|US|arin|2015-10-06|GOOGLE-FIBER, US
137.119.52.140|22191|137.119.48.0/20|US|arin|1989-11-21|WILKES-COMM, US
142.54.181.218|33387|142.54.160.0/19|US|arin|2012-05-18|NOCIX, US
148.251.127.121|24940|148.251.0.0/16|DE|ripencc|1993-09-01|HETZNER-AS, DE
149.224.124.199|15943|149.224.0.0/17|DE|ripencc|1993-09-01|WTNET-AS wilhelm.tel GmbH, DE
151.62.99.0|1267|151.62.0.0/16|IT|ripencc|1991-05-13|ASN-WINDTRE IUNET, IT
157.230.144.234|14061|157.230.144.0/20|US|arin|2018-08-22|DIGITALOCEAN-ASN, US
162.0.234.96|22612|162.0.224.0/20|US|arin|2020-04-03|NAMECHEAP-NET, US
162.218.218.163|29844|162.218.218.0/24|US|arin|2013-08-07|SENAWAVE, US
162.244.80.208|19624|162.244.80.0/24|US|arin|2014-03-07|SERVERROOM, US
171.97.34.86|17552|171.97.0.0/18|TH|apnic|2011-03-07|TRUEONLINE-AS-AP True Online, TH
173.212.235.121|51167|173.212.224.0/20|DE|ripencc|2009-10-26|CONTABO, DE
173.230.87.157|23473|173.230.86.0/23|US|arin|2010-03-03|PAVLOVMEDIA, US
174.114.102.41|812|174.114.0.0/16|CA|arin|2009-03-04|ROGERS-COMMUNICATIONS, CA
174.115.197.190|812|174.115.192.0/18|CA|arin|2009-03-04|ROGERS-COMMUNICATIONS, CA
175.43.241.24|4837|175.42.0.0/15|CN|apnic|2009-12-15|CHINA169-BACKBONE CHINA UNICOM China169 Backbone, CN
178.255.42.126|197155|178.255.42.0/24|PL|ripencc|2010-07-01|ARTNET, PL
178.79.83.93|3212|178.79.64.0/18|SI|ripencc|2010-05-07|TELEMACH Broadband Access & Carrier Services, SI
18.163.113.110|16509|18.163.0.0/16|US|arin|2019-10-07|AMAZON-02, US
185.131.63.83|44489|185.131.60.0/22|CZ|ripencc|2015-12-15|STARNET, CZ
185.143.45.39|55293|185.143.44.0/22|US|ripencc|2016-03-11|A2HOSTING, US
185.59.101.51|201492|185.59.101.0/24|DE|ripencc|2014-05-30|NETVERSOR-4, DE
189.207.46.32|6503|189.207.32.0/19|MX|lacnic|2014-06-12|Axtel, S.A.B. de C.V., MX
190.190.93.50|7303|190.190.0.0/15|AR|lacnic|2008-02-19|Telecom Argentina S.A., AR
193.194.163.35|15825|193.194.162.0/23|GH|afrinic|2005-02-21|GDC-ASN, GH
198.27.67.60|16276|198.27.64.0/18|CA|arin|2012-08-28|OVH, FR
2.200.66.182|3209|2.200.0.0/14|DE|ripencc|2010-11-18|VODANET International IP-Backbone of Vodafone, DE
2.85.255.149|6799|2.85.0.0/16|GR|ripencc|2010-05-12|OTENET-GR Athens - Greece, GR
202.239.42.192|4694|202.239.32.0/19|JP|apnic|1995-03-29|IDCF IDC Frontier Inc., JP
206.189.109.149|14061|206.189.96.0/20|US|arin|1995-11-15|DIGITALOCEAN-ASN, US
209.205.124.38|7979|209.205.120.0/21|US|arin|2015-06-04|SERVERS-COM, US
213.89.131.53|39651|213.89.0.0/16|SE|ripencc|2000-12-27|TELE2-FIXED-SWEDEN, SE
216.186.250.53|12083|216.186.192.0/18|US|arin|2006-03-20|WOW-INTERNET, US
217.26.47.10|197312|217.26.47.0/24|CH|ripencc|2000-10-16|BSOURCE-AS, CH
217.44.82.130|2856|217.32.0.0/12|GB|ripencc|2000-09-20|BT-UK-AS BTnet UK Regional network, GB
23.251.64.80|26827|23.251.64.0/19|US|arin|2013-11-07|EPBTELECOM, US
24.116.153.115|11492|24.116.153.0/24|US|arin|1996-09-25|CABLEONE, US
3.1.220.100|16509|3.0.0.0/15|US|arin|2017-12-20|AMAZON-02, US
3.101.67.35|16509|3.101.0.0/16|US|arin|2017-12-20|AMAZON-02, US
3.249.42.217|16509|3.248.0.0/13|US|arin|2018-06-25|AMAZON-02, US
3.35.138.214|16509|3.34.0.0/15|US|arin|2017-12-20|AMAZON-02, US
3.96.218.124|16509|3.96.0.0/15|US|arin|2017-12-20|AMAZON-02, US
31.184.224.90|49505|31.184.224.0/22|RU|ripencc|2011-03-04|SELECTEL, RU
34.64.123.98|139070|34.64.0.0/16|US|arin|2018-09-28|GOOGLE-AS-AP Google Asia Pacific Pte. Ltd., SG
34.64.209.210|139070|34.64.0.0/16|US|arin|2018-09-28|GOOGLE-AS-AP Google Asia Pacific Pte. Ltd., SG
34.80.137.236|15169|34.80.0.0/14|US|arin|2018-09-28|GOOGLE, US
34.80.224.42|15169|34.80.0.0/14|US|arin|2018-09-28|GOOGLE, US
34.82.27.114|15169|34.80.0.0/14|US|arin|2018-09-28|GOOGLE, US
34.94.137.151|15169|34.92.0.0/14|US|arin|2018-09-28|GOOGLE, US
34.94.90.131|15169|34.92.0.0/14|US|arin|2018-09-28|GOOGLE, US
34.96.185.33|15169|34.96.128.0/17|US|arin|2018-09-28|GOOGLE, US
35.199.86.139|15169|35.199.0.0/17|US|arin|2017-03-21|GOOGLE, US
35.221.214.98|15169|35.220.0.0/14|US|arin|2017-09-29|GOOGLE, US
35.231.217.24|15169|35.228.0.0/14|US|arin|2017-09-29|GOOGLE, US
35.236.147.169|15169|35.236.0.0/14|US|arin|2017-09-29|GOOGLE, US
35.241.116.147|15169|35.240.0.0/14|US|arin|2017-09-29|GOOGLE, US
35.244.9.182|15169|35.244.0.0/14|US|arin|2017-09-29|GOOGLE, US
39.97.231.198|37963|39.96.0.0/14|CN|apnic|2011-04-05|CNNIC-ALIBABA-CN-NET-AP Hangzhou Alibaba Advertising Co.,Ltd., CN
4.16.58.146|3356|4.0.0.0/9|US|arin|1992-12-01|LEVEL3, US
45.46.162.85|11351|45.46.0.0/15|US|arin|2015-02-02|TWC-11351-NORTHEAST, US
46.124.174.57|8412|46.124.0.0/15|AT|ripencc|2010-05-31|TMA Magenta Telekom, AT
46.173.211.21|47196|46.173.211.0/24|RU|ripencc|2011-02-07|GARANT-PARK-INTERNET, RU
47.254.174.194|45102|47.254.160.0/19|US|arin|2016-04-15|CNNIC-ALIBABA-US-NET-AP Alibaba (US) Technology Co., Ltd., CN
47.96.111.238|37963|47.96.0.0/15|CN|apnic|1989-01-06|CNNIC-ALIBABA-CN-NET-AP Hangzhou Alibaba Advertising Co.,Ltd., CN
49.12.82.82|24940|49.12.0.0/16|DE|ripencc|2010-10-21|HETZNER-AS, DE
5.135.177.202|16276|5.135.0.0/16|FR|ripencc|2012-07-06|OVH, FR
5.150.239.205|8473|5.150.192.0/18|SE|ripencc|2012-07-18|BAHNHOF http://www.bahnhof.net/, SE
50.5.46.195|6181|50.5.0.0/17|US|arin|2010-09-09|FUSE-NET, US
51.15.21.149|12876|51.15.0.0/17|FR|ripencc|1993-09-01|Online SAS, FR
54.176.63.16|16509|54.176.0.0/15|US|arin|2014-10-23|AMAZON-02, US
54.229.44.167|16509|54.229.0.0/17|US|arin|2012-03-01|AMAZON-02, US
59.25.6.100|4766|59.24.0.0/13|KR|apnic|2004-08-02|KIXS-AS-KR Korea Telecom, KR
60.132.121.224|17676|60.132.0.0/16|JP|apnic|2004-05-20|GIGAINFRA Softbank BB Corp., JP
63.249.96.19|11994|63.249.96.0/21|US|arin|2000-12-15|CZIO-ASN, US
64.33.179.212|11796|64.33.128.0/18|US|arin|2000-02-02|AIRSTREAMCOMM-NET, US
64.98.72.92|32133|64.98.64.0/20|CA|arin|2000-05-18|AS-TING-BACKBONE, US
65.35.192.46|33363|65.35.0.0/16|US|arin|2000-08-22|BHN-33363, US
69.59.19.22|397444|69.59.19.0/24|US|arin|2019-04-18|AS-OKI, US
72.74.34.99|701|72.74.0.0/16|US|arin|2005-06-24|UUNET, US
74.213.232.237|14978|74.213.232.0/24|US|arin|2008-05-01|CSSBB, US
78.80.179.178|13036|78.80.128.0/17|CZ|ripencc|2007-03-22|TMOBILE-, CZ
8.134.59.189|37963|8.134.0.0/17|SG|apnic|1992-12-01|CNNIC-ALIBABA-CN-NET-AP Hangzhou Alibaba Advertising Co.,Ltd., CN
8.140.105.213|37963|8.140.0.0/15|SG|apnic|1992-12-01|CNNIC-ALIBABA-CN-NET-AP Hangzhou Alibaba Advertising Co.,Ltd., CN
8.210.170.138|45102|8.210.128.0/17|SG|apnic|1992-12-01|CNNIC-ALIBABA-US-NET-AP Alibaba (US) Technology Co., Ltd., CN
80.194.62.218|5089|80.194.0.0/15|GB|ripencc|2001-09-26|NTL, GB
80.232.247.210|12578|80.232.128.0/17|LV|ripencc|2001-10-03|APOLLO-AS Latvia, LV
82.131.84.26|2586|82.131.0.0/17|EE|ripencc|2003-07-29|UNINET-AS Sopruse pst 145, EE
82.148.25.100|49505|82.148.24.0/22|RU|ripencc|2003-07-10|SELECTEL, RU
83.148.241.192|39699|83.148.192.0/18|FI|ripencc|2004-03-09|SSPOY-AS, FI
84.106.37.98|33915|84.106.0.0/15|NL|ripencc|2004-04-26|TNF-AS, NL
85.214.103.48|6724|85.214.0.0/15|DE|ripencc|2005-02-24|STRATO STRATO AG, DE
86.130.149.20|2856|86.128.0.0/12|GB|ripencc|2005-02-07|BT-UK-AS BTnet UK Regional network, GB
86.3.89.24|5089|86.2.0.0/15|GB|ripencc|2005-03-29|NTL, GB
87.66.143.47|5432|87.64.0.0/14|BE|ripencc|2005-05-19|PROXIMUS-ISP-AS, BE
88.147.244.250|12389|88.147.128.0/17|RU|ripencc|2006-01-11|ROSTELECOM-AS, RU
88.198.71.138|24940|88.198.0.0/16|DE|ripencc|2005-12-27|HETZNER-AS, DE
89.163.225.8|24961|89.163.128.0/17|DE|ripencc|2006-02-17|MYLOC-AS IP Backbone of myLoc managed IT AG, DE
89.230.96.42|21021|89.230.0.0/16|PL|ripencc|2006-04-21|MULTIMEDIA-AS Cable DTV Internet Voice Provider in Poland., PL
89.33.195.97|203523|89.33.195.0/24|RO|ripencc|2005-11-29|VIRTONO-NETWORKS, RO
91.106.131.90|198930|91.106.128.0/18|DE|ripencc|2012-06-21|DE-VSM-ASN Peering, DE
91.121.163.195|16276|91.121.0.0/16|FR|ripencc|2006-09-20|OVH, FR
91.204.149.5|42765|91.204.148.0/22|RU|ripencc|2008-06-23|INFOTECH-LINER-AS, RU
91.219.25.232|50448|91.219.24.0/22|RU|ripencc|2010-09-02|SYSTEM-SERVICE-AS, RU
91.228.45.130|197895|91.228.44.0/22|CZ|ripencc|2011-05-23|ONYX-AS ONYX engineering, spol. s r. o., CZ
92.222.96.225|16276|92.222.0.0/16|FR|ripencc|2007-10-17|OVH, FR
93.201.248.134|3320|93.192.0.0/10|DE|ripencc|2008-02-12|DTAG Internet service provider operations, DE
94.114.158.146|3209|94.114.0.0/16|DE|ripencc|2008-07-09|VODANET International IP-Backbone of Vodafone, DE
94.23.214.15|16276|94.23.0.0/16|FR|ripencc|2008-07-15|OVH, FR
95.252.48.28|3269|95.252.0.0/17|IT|ripencc|2009-01-15|ASN-IBSNAZ, IT
96.9.209.210|46844|96.9.208.0/23|US|arin|2015-03-10|ST-BGP, US
