# bitcoin dns seeds and whois results
IP Address|ASN|BGP Prefix|CC|Registry|Allocated|AS Name
104.143.2.195|26863|104.143.2.0/23|US|arin|2020-10-07|GAMESERVERKINGS, US
104.152.187.114|31863|104.152.184.0/21|US|arin|2014-07-18|DACEN-2, US
109.199.241.148|25374|109.199.241.0/24|BG|ripencc|2010-01-26|ESCOMBG-AS Local Internet Service Provider Bulgaria, BG
116.116.9.231|4837|116.116.0.0/15|CN|apnic|2007-05-23|CHINA169-BACKBONE CHINA UNICOM China169 Backbone, CN
118.189.187.219|4773|118.189.184.0/21|SG|apnic|2007-10-19|MOBILEONELTD-AS-AP MobileOne Ltd. Mobile/Internet Service Provider Singapore, SG
122.224.244.98|4134|122.224.0.0/12|CN|apnic|2006-11-16|CHINANET-BACKBONE No.31,Jin-rong Street, CN
128.237.154.145|9|128.237.0.0/16|US|arin|1987-05-06|CMU-ROUTER, US
129.192.83.191|29518|129.192.80.0/22|US|arin|1994-11-15|BREDBAND2, SE
13.228.139.137|16509|13.228.0.0/15|US|arin|2019-10-01|AMAZON-02, US
13.49.228.150|16509|13.48.0.0/15|US|arin|2020-08-05|AMAZON-02, US
135.181.141.120|24940|135.181.0.0/16|DE|ripencc|1996-04-30|HETZNER-AS, DE
138.197.97.88|14061|138.197.96.0/20|US|arin|2016-01-26|DIGITALOCEAN-ASN, US
14.133.132.3|18126|14.133.0.0/16|JP|apnic|2010-09-01|CTCX Chubu Telecommunications Company, Inc., JP
149.28.46.48|20473|149.28.32.0/19|US|arin|2018-05-04|AS-CHOOPA, US
15.164.203.130|16509|15.164.0.0/15|US|arin|2018-09-27|AMAZON-02, US
153.127.253.219|24282|153.127.224.0/19|JP|apnic|2011-03-02|KIR KAGOYA JAPAN Inc., JP
162.154.207.147|10796|162.152.0.0/14|US|arin|2012-10-10|TWC-10796-MIDWEST, US
165.227.101.132|14061|165.227.96.0/20|US|arin|2016-10-06|DIGITALOCEAN-ASN, US
167.248.230.158|30404|167.248.192.0/18|US|arin|2020-06-29|BSCL-11, US
172.104.81.87|63949|172.104.64.0/19|US|arin|2015-06-19|LINODE-AP Linode, LLC, US
172.81.177.66|174|172.81.176.0/21|CA|arin|2015-05-14|COGENT-174, US
174.115.197.190|812|174.115.192.0/18|CA|arin|2009-03-04|ROGERS-COMMUNICATIONS, CA
174.51.16.33|7922|174.48.0.0/12|US|arin|2008-11-18|COMCAST-7922, US
176.223.143.145|62282|176.223.128.0/20|LT|ripencc|2011-11-29|RACKRAY UAB Rakrejus, LT
176.9.156.228|24940|176.9.0.0/16|DE|ripencc|2011-05-17|HETZNER-AS, DE
178.128.120.178|14061|178.128.112.0/20|US|ripencc|2010-03-03|DIGITALOCEAN-ASN, US
178.17.145.83|41164|178.17.144.0/20|NO|ripencc|2010-03-23|GET-NO GET Norway, NO
178.79.83.93|3212|178.79.64.0/18|SI|ripencc|2010-05-07|TELEMACH Broadband Access & Carrier Services, SI
179.96.241.250|53059|179.96.240.0/20|BR|lacnic|2013-04-23|Center Prestadora Servicos S/C Ltda, BR
18.144.54.86|16509|18.144.0.0/15|US|arin|2019-10-07|AMAZON-02, US
18.156.64.16|16509|18.156.0.0/14|US|arin|2019-10-07|AMAZON-02, US
185.159.81.162|14576|185.159.81.0/24|NL|ripencc|2016-07-12|HOSTING-SOLUTIONS, US
185.204.197.112|60631|185.204.197.0/24|IR|ripencc|2021-02-25|PARVASYSTEM, IR
185.232.52.55|200313|185.232.52.0/24|SC|ripencc|2017-11-15|INTERNET-IT, SC
185.232.71.18|197540|185.232.68.0/22|AT|ripencc|2017-11-16|NETCUP-AS netcup GmbH, DE
185.59.101.51|201492|185.59.101.0/24|DE|ripencc|2014-05-30|NETVERSOR-4, DE
188.117.245.195|25447|188.117.240.0/20|AT|ripencc|2009-06-18|JM-DATA Hackl-Str. 1, Object 2, AT
188.134.8.36|41733|188.134.0.0/17|RU|ripencc|2009-04-27|ZTELECOM-AS, RU
188.155.218.95|6730|188.154.0.0/15|CH|ripencc|2009-05-08|SUNRISE, CH
188.155.94.34|6730|188.154.0.0/15|CH|ripencc|2009-05-08|SUNRISE, CH
188.244.233.251|15774|188.244.224.0/20|RU|ripencc|2011-01-11|TTK-RTL Retail, RU
188.35.167.14|34123|188.35.0.0/16|RU|ripencc|2009-03-31|NETORN-AS, RU
192.111.59.77|22422|192.111.56.0/21|US|arin|2013-01-29|BOARD-OF-ELECTIONS-IN-THE-CITY-OF-NEW-YORK, US
193.196.39.103|34878|193.196.32.0/20|DE|ripencc|1993-09-01|KIT Karlsruhe Institute of Technology, DE
193.198.68.185|2108|193.198.0.0/16|HR|ripencc|1993-09-01|CARNET-AS J.Marohnica 5, 10000 Zagreb, HR
193.222.130.14|29208|193.222.130.0/24|CZ|ripencc|2005-08-17|DIALTELECOM-AS Dial Telecom a.s., CZ
193.40.103.45|3221|193.40.0.0/16|EE|ripencc|1995-03-15|EENET-AS, EE
194.59.204.187|197540|194.59.204.0/22|DE|ripencc|2018-09-24|NETCUP-AS netcup GmbH, DE
195.123.188.186|197726|195.123.188.0/24|UA|ripencc|1997-04-04|UKRNAMES-AS, UA
198.254.80.65|26827|198.254.80.0/20|US|arin|2013-02-22|EPBTELECOM, US
203.135.149.182|23881|203.135.149.0/24|HK|apnic|2000-07-05|UDOMAIN-AS-AP UDomain Web Hosting Company Ltd, HK
206.55.210.10|33618|206.55.210.0/24|US|arin|2008-03-27|SERVLET-LLC-AS, US
209.145.61.167|40021|209.145.48.0/20|US|arin|2000-07-21|CONTABO, US
209.188.31.52|20454|209.188.0.0/19|US|arin|2004-05-18|SSASN2, US
209.236.228.26|21554|209.236.224.0/20|US|arin|2003-01-03|CYBERLYNK, US
212.73.150.21|44901|212.73.150.0/24|CY|ripencc|2004-11-19|BELCLOUD, BG
213.125.67.108|33915|213.125.0.0/17|NL|ripencc|1999-09-16|TNF-AS, NL
213.202.35.178|21466|213.202.32.0/21|CH|ripencc|2001-12-12|ASQUICKNET Kabelfernsehn Boedeli in Interlaken (Switzerland), CH
213.221.218.50|15600|213.221.192.0/18|CH|ripencc|2003-03-07|FINECOM Quickline AG, CH
222.135.176.219|4837|222.135.176.0/22|CN|apnic|2003-12-11|CHINA169-BACKBONE CHINA UNICOM China169 Backbone, CN
24.132.99.11|33915|24.132.0.0/17|NL|ripencc|1997-10-13|TNF-AS, NL
3.10.70.38|16509|3.8.0.0/14|US|arin|2017-12-20|AMAZON-02, US
3.121.94.224|16509|3.120.0.0/14|US|arin|2017-12-20|AMAZON-02, US
31.42.184.85|30860|31.42.184.0/23|UA|ripencc|2011-02-23|YURTEH-AS, UA
34.195.96.196|14618|34.192.0.0/12|US|arin|2016-09-12|AMAZON-AES, US
34.249.158.199|16509|34.248.0.0/13|US|arin|2016-09-12|AMAZON-02, US
34.86.228.49|15169|34.84.0.0/14|US|arin|2018-09-28|GOOGLE, US
35.213.18.190|15169|35.213.0.0/17|US|arin|2017-09-29|GOOGLE, US
35.236.193.31|15169|35.236.0.0/14|US|arin|2017-09-29|GOOGLE, US
35.246.216.185|15169|35.244.0.0/14|US|arin|2017-09-29|GOOGLE, US
37.187.5.202|16276|37.187.0.0/16|FR|ripencc|2012-03-20|OVH, FR
37.34.249.83|42961|37.34.240.0/20|KW|ripencc|2012-01-03|GPRS-AS ZAIN, KW
37.97.249.17|20857|37.97.128.0/17|NL|ripencc|2012-02-02|TRANSIP-AS Amsterdam, the Netherlands, NL
45.136.230.185|60781|45.136.230.0/24|IL|ripencc|2019-08-02|LEASEWEB-NL-AMS-01 Netherlands, NL
45.77.122.231|20473|45.77.120.0/21|US|arin|2015-04-24|AS-CHOOPA, US
46.166.148.160|43350|46.166.144.0/21|NL|ripencc|2010-12-16|NFORCE, NL
47.156.145.43|5650|47.156.0.0/16|US|arin|2015-08-28|FRONTIER-FRTR, US
47.243.60.102|45102|47.243.0.0/16|US|arin|2016-04-15|CNNIC-ALIBABA-US-NET-AP Alibaba (US) Technology Co., Ltd., CN
47.95.32.92|37963|47.94.0.0/15|CN|apnic|1989-01-06|CNNIC-ALIBABA-CN-NET-AP Hangzhou Alibaba Advertising Co.,Ltd., CN
5.61.50.213|58061|5.61.48.0/22|GB|ripencc|2012-06-07|SCALAXY-AS, NL
5.8.18.31|202425|5.8.18.0/24|RU|ripencc|2012-04-25|INT-NETWORK, SC
5.9.151.49|24940|5.9.0.0/16|DE|ripencc|2012-04-25|HETZNER-AS, DE
5.9.8.28|24940|5.9.0.0/16|DE|ripencc|2012-04-25|HETZNER-AS, DE
50.92.85.242|852|50.92.0.0/16|CA|arin|2011-02-04|TELUS Communications, CA
51.146.199.158|5607|51.146.0.0/16|GB|ripencc|1993-09-01|BSKYB-BROADBAND-AS, GB
51.89.40.32|16276|51.89.0.0/16|FR|ripencc|1993-09-01|OVH, FR
52.47.116.237|16509|52.47.0.0/16|US|arin|1991-12-19|AMAZON-02, US
52.53.229.86|16509|52.52.0.0/15|US|arin|1991-12-19|AMAZON-02, US
52.89.150.155|16509|52.88.0.0/15|US|arin|1991-12-19|AMAZON-02, US
54.179.186.229|16509|54.179.128.0/18|US|arin|2014-10-23|AMAZON-02, US
54.189.184.168|16509|54.188.0.0/15|US|arin|2014-10-23|AMAZON-02, US
62.205.155.252|29632|62.205.128.0/19|GI|ripencc|2008-02-01|NASSIST-AS, GI
63.247.147.166|30221|63.247.144.0/20|US|arin|2007-04-11|T3COM, US
64.156.192.61|21581|64.156.192.0/24|US|arin|2000-06-08|M5HOSTING, US
64.235.93.175|25769|64.235.64.0/19|US|arin|2002-09-11|GVTEL, US
64.71.74.75|13886|64.71.74.0/24|US|arin|2015-02-23|CLOUD-SOUTH, US
66.69.233.105|11427|66.68.0.0/15|US|arin|2001-01-25|TWC-11427-TEXAS, US
68.187.64.232|20115|68.187.64.0/20|US|arin|2002-12-31|CHARTER-20115, US
69.13.39.40|54489|69.13.0.0/16|US|arin|2002-12-04|CORESPACE-DAL, US
69.61.99.10|22653|69.61.0.0/17|US|arin|2003-07-08|GLOBALCOMPASS, US
71.191.207.62|701|71.191.0.0/16|US|arin|2005-06-01|UUNET, US
74.79.123.203|11351|74.76.0.0/14|US|arin|2006-03-27|TWC-11351-NORTHEAST, US
76.204.247.110|7018|76.204.0.0/16|US|arin|2006-09-15|ATT-INTERNET4, US
77.109.191.149|13030|77.109.160.0/19|CH|ripencc|2007-01-19|INIT7, CH
79.98.159.7|44065|79.98.152.0/21|CZ|ripencc|2007-11-06|NETAIR-AS, CZ
82.197.206.139|25596|82.197.192.0/19|NL|ripencc|2003-11-11|CAMBRIUM-AS, NL
85.208.71.25|42275|85.208.71.0/24|FR|ripencc|2019-02-21|THREEFOURTEEN, FR
86.49.157.42|16019|86.49.128.0/17|CZ|ripencc|2005-04-21|VODAFONE-CZ-AS, CZ
87.151.75.142|3320|87.128.0.0/10|DE|ripencc|2005-05-03|DTAG Internet service provider operations, DE
87.92.137.62|16086|87.92.0.0/14|FI|ripencc|2005-07-05|DNA, FI
90.162.126.41|12479|90.162.124.0/22|ES|ripencc|2006-09-12|UNI2-AS, ES
90.165.120.190|12479|90.165.120.0/22|ES|ripencc|2006-09-12|UNI2-AS, ES
91.121.86.38|16276|91.121.0.0/16|FR|ripencc|2006-09-20|OVH, FR
91.204.149.5|NA|NA|RU|ripencc|2008-06-23|NA
91.209.51.131|48239|91.209.51.0/24|UA|ripencc|2008-10-22|ITTV-AS Kiev, Ukraine, UA
92.220.163.15|29695|92.220.0.0/15|NO|ripencc|2007-10-17|ALTIBOX_AS Norway, NO
95.111.245.205|51167|95.111.244.0/23|DE|ripencc|2008-12-30|CONTABO, DE
97.120.232.182|209|97.120.0.0/16|US|arin|2007-12-19|CENTURYLINK-US-LEGACY-QWEST, US
99.192.223.18|27589|99.192.128.0/17|US|arin|2009-04-22|MOJOHOST, US
