# bitcoin dns seeds and whois results
IP Address|ASN|BGP Prefix|CC|Registry|Allocated|AS Name
103.99.168.150|54415|103.99.168.0/24|JP|apnic|2017-08-28|WIZ-JP-AS-AP WIZ K.K., JP
106.157.214.199|2516|106.128.0.0/11|JP|apnic|2011-03-15|KDDI KDDI CORPORATION, JP
108.168.125.21|40788|108.168.0.0/17|CA|arin|2011-12-29|START-, CA
108.234.193.108|7018|108.192.0.0/10|US|arin|2011-01-12|ATT-INTERNET4, US
109.239.211.17|196742|109.239.208.0/21|RU|ripencc|2010-02-15|EKRAN-AS, RU
118.92.122.242|9500|118.92.0.0/16|NZ|apnic|2007-08-24|VODAFONE-TRANSIT-AS Vodafone NZ Ltd., NZ
119.8.19.14|135026|119.8.19.0/24|SG|apnic|2007-11-23|THINKDREAM-AS-AP ThinkDream Technology Limited, HK
13.53.123.164|16509|13.53.0.0/16|US|arin|2020-08-05|AMAZON-02, US
157.245.94.69|14061|157.245.80.0/20|US|arin|2019-05-09|DIGITALOCEAN-ASN, US
161.97.70.157|51167|161.97.70.0/23|DE|ripencc|1992-06-23|CONTABO, DE
173.11.150.73|7922|173.8.0.0/13|US|arin|2008-05-05|COMCAST-7922, US
178.148.160.62|31042|178.148.0.0/16|RS|ripencc|2010-03-19|SERBIA-BROADBAND-AS Serbia BroadBand-Srpske Kablovske mreze d.o.o., RS
178.79.83.93|3212|178.79.64.0/18|SI|ripencc|2010-05-07|TELEMACH Broadband Access & Carrier Services, SI
18.27.79.17|3|18.27.0.0/16|US|arin|1994-01-01|MIT-GATEWAYS, US
185.158.114.184|44812|185.158.114.0/24|RU|ripencc|2016-07-05|IPSERVER-RU-NET Fiord, RU
185.254.97.164|60548|185.254.96.0/22|DE|ripencc|2018-04-10|AVORO Avoro, DE
188.156.124.58|5483|188.156.0.0/15|HU|ripencc|2009-05-12|MAGYAR-TELEKOM-MAIN-AS Magyar Telekom Nyrt., HU
189.121.172.220|28573|189.121.0.0/16|BR|lacnic|2008-06-03|CLARO S.A., BR
205.134.172.4|6405|205.134.160.0/19|US|arin|1995-04-27|AIN, US
206.55.210.10|33618|206.55.210.0/24|US|arin|2008-03-27|SERVLET-LLC-AS, US
34.64.137.48|139070|34.64.0.0/16|US|arin|2018-09-28|GOOGLE-AS-AP Google Asia Pacific Pte. Ltd., SG
34.94.30.169|15169|34.92.0.0/14|US|arin|2018-09-28|GOOGLE, US
35.200.208.95|15169|35.200.0.0/14|US|arin|2017-03-21|GOOGLE, US
35.201.200.26|15169|35.200.0.0/14|US|arin|2017-03-21|GOOGLE, US
35.246.247.7|15169|35.244.0.0/14|US|arin|2017-09-29|GOOGLE, US
47.57.235.121|45102|47.57.0.0/16|US|arin|2016-03-17|CNNIC-ALIBABA-US-NET-AP Alibaba (US) Technology Co., Ltd., CN
52.119.120.105|32329|52.119.120.0/21|US|arin|2016-08-04|MONKEYBRAINS, US
64.201.87.233|21555|64.201.80.0/21|US|arin|2007-01-09|LHTC, US
65.19.155.82|6939|65.19.128.0/18|US|arin|2002-04-17|HURRICANE, US
66.69.233.105|11427|66.68.0.0/15|US|arin|2001-01-25|TWC-11427-TEXAS, US
67.80.164.152|6128|67.80.0.0/14|US|arin|2001-11-09|CABLE-NET-1, US
77.37.138.239|42610|77.37.128.0/17|RU|ripencc|2007-03-21|NCNET-AS, RU
78.141.225.96|20473|78.141.224.0/19|US|ripencc|2007-07-30|AS-CHOOPA, US
78.27.139.13|15683|78.27.128.0/18|UA|ripencc|2010-06-11|DOMASHKA-AS, UA
81.0.198.25|21430|81.0.198.0/24|CZ|ripencc|2001-12-14|WIA-AS, CZ
81.4.100.149|198203|81.4.100.0/22|NL|ripencc|2002-05-10|ASN-ROUTELABEL, NL
83.80.238.7|33915|83.80.0.0/14|NL|ripencc|2003-11-28|TNF-AS, NL
85.145.27.228|50266|85.144.0.0/15|NL|ripencc|2004-10-06|TMOBILE-THUIS, NL
86.49.157.42|16019|86.49.128.0/17|CZ|ripencc|2005-04-21|VODAFONE-CZ-AS, CZ
86.98.127.249|5384|86.98.64.0/18|AE|ripencc|2005-04-20|EMIRATES-INTERNET Emirates Internet, AE
88.212.168.101|56329|88.212.168.0/21|GB|ripencc|2005-12-15|GIGACLEAR, GB
88.99.104.135|24940|88.99.0.0/16|DE|ripencc|2005-08-03|HETZNER-AS, DE
91.181.52.200|5432|91.180.0.0/14|BE|ripencc|2006-09-04|PROXIMUS-ISP-AS, BE
91.228.152.252|44066|91.228.152.0/22|ES|ripencc|2011-06-01|DE-FIRSTCOLO www.first-colo.net, DE
93.115.86.246|3223|93.115.80.0/21|GB|ripencc|2007-12-21|VOXILITY, GB
94.23.84.173|16276|94.23.0.0/16|FR|ripencc|2008-07-15|OVH, FR
