# bitcoin dns seeds and whois results
IP Address|ASN|BGP Prefix|CC|Registry|Allocated|AS Name
102.176.189.7|328289|102.176.189.0/24|ZZ|afrinic||-Reserved AS-, ZZ
104.152.209.49|26832|104.152.208.0/22|CA|arin|2014-07-22|RICAWEBSERVICES, CA
106.250.188.106|3786|106.240.0.0/12|KR|apnic|2011-03-28|LGDACOM LG DACOM Corporation, KR
107.159.93.103|1403|107.159.80.0/20|CA|arin|2013-12-03|EBOX, CA
108.26.60.38|701|108.26.0.0/18|US|arin|2009-06-05|UUNET, US
108.30.14.21|701|108.30.0.0/16|US|arin|2009-06-05|UUNET, US
119.18.34.97|4764|119.18.34.0/23|AU|apnic|2007-12-06|WIDEBAND-AS-AP Aussie Broadband, AU
128.0.190.26|30764|128.0.176.0/20|CZ|ripencc|2012-09-14|PODA-AS, CZ
13.229.129.207|16509|13.228.0.0/15|US|arin|2019-10-01|AMAZON-02, US
133.125.50.180|7684|133.125.0.0/16|JP|apnic|1997-03-01|SAKURA-A SAKURA Internet Inc., JP
134.122.145.149|64050|134.122.145.0/24|SG|apnic|1989-05-23|BCPL-SG BGPNET Global ASN, SG
135.181.1.50|24940|135.181.0.0/16|DE|ripencc|1996-04-30|HETZNER-AS, DE
135.181.2.188|24940|135.181.0.0/16|DE|ripencc|1996-04-30|HETZNER-AS, DE
139.153.255.107|786|139.153.0.0/16|GB|ripencc|1992-10-05|JANET Jisc Services Limited, GB
145.239.133.16|16276|145.239.0.0/16|FR|ripencc|1993-08-03|OVH, FR
149.71.73.71|48945|149.71.64.0/20|US|arin|1992-01-28|IFNL-AS, GB
159.100.249.179|61098|159.100.248.0/21|CH|ripencc|1992-03-31|EXOSCALE, CH
168.119.174.106|24940|168.119.0.0/16|DE|ripencc|1994-04-05|HETZNER-AS, DE
172.218.182.132|852|172.218.0.0/16|CA|arin|2012-04-16|TELUS Communications, CA
173.231.203.46|22611|173.231.192.0/20|US|arin|2018-10-23|INMOTION, US
173.249.60.9|51167|173.249.60.0/23|DE|ripencc|2010-05-26|CONTABO, DE
173.31.161.228|30036|173.31.160.0/21|US|arin|2008-05-19|MEDIACOM-ENTERPRISE-BUSINESS, US
173.33.167.212|812|173.32.0.0/14|CA|arin|2008-08-06|ROGERS-COMMUNICATIONS, CA
176.21.161.80|3292|176.20.0.0/14|DK|ripencc|2011-05-19|TDC TDC A/S, DK
176.9.156.228|24940|176.9.0.0/16|DE|ripencc|2011-05-17|HETZNER-AS, DE
176.9.59.199|24940|176.9.0.0/16|DE|ripencc|2011-05-17|HETZNER-AS, DE
178.164.169.167|20845|178.164.128.0/17|HU|ripencc|2010-02-16|DIGICABLE, HU
178.41.45.36|6855|178.40.0.0/15|SK|ripencc|2010-02-02|SK-TELEKOM Slovak Telekom / T-Mobile CZ, SK
178.66.70.91|12389|178.66.0.0/16|RU|ripencc|2010-01-05|ROSTELECOM-AS, RU
178.79.83.93|3212|178.79.64.0/18|SI|ripencc|2010-05-07|TELEMACH Broadband Access & Carrier Services, SI
185.78.209.27|202128|185.78.208.0/22|NO|ripencc|2014-11-25|FJORDANE-IT, NO
185.8.172.123|60631|185.8.172.0/24|IR|ripencc|2012-11-01|PARVASYSTEM, IR
187.144.70.245|8151|187.144.64.0/21|MX|lacnic|2007-12-06|Uninet S.A. de C.V., MX
187.170.246.249|8151|187.170.240.0/20|MX|lacnic|2010-03-02|Uninet S.A. de C.V., MX
188.127.183.29|15704|188.127.160.0/19|ES|ripencc|2009-07-30|AS15704, ES
188.37.24.190|12353|188.37.0.0/16|PT|ripencc|2010-01-07|VODAFONE-PT Vodafone Portugal, PT
190.211.204.68|27833|190.211.200.0/21|AR|lacnic|2010-11-17|BVNET S.A., AR
192.151.158.26|33387|192.151.144.0/20|US|arin|2012-11-27|NOCIX, US
192.42.253.213|60251|192.42.253.0/24|CH|ripencc|2019-11-12|CALYPSO-IT, CH
193.234.50.227|200134|193.234.48.0/22|SE|ripencc|1993-09-01|IPCONNECT, FI
198.1.231.6|30236|198.1.224.0/21|CA|arin|2013-04-17|CRONOMAGIC-1, CA
200.87.116.213|6568|200.87.112.0/20|BO|lacnic|2002-06-28|Entel S.A. - EntelNet, BO
204.195.63.205|11404|204.195.0.0/17|US|arin|2009-07-22|AS-WAVE-1, US
206.125.169.164|25795|206.125.168.0/21|US|arin|2008-12-08|ARPNET, US
206.81.96.62|8046|206.81.96.0/21|US|arin|1995-08-16|NAPANET, US
207.190.80.147|11796|207.190.64.0/18|US|arin|2000-09-22|AIRSTREAMCOMM-NET, US
208.73.156.62|40447|208.73.156.0/22|US|arin|2017-02-08|SKYHAWK-GROUP, US
211.233.9.195|3786|211.233.0.0/18|KR|apnic|2000-09-08|LGDACOM LG DACOM Corporation, KR
213.239.212.30|24940|213.239.192.0/18|DE|ripencc|2003-05-28|HETZNER-AS, DE
23.251.64.80|26827|23.251.64.0/19|US|arin|2013-11-07|EPBTELECOM, US
24.113.137.192|11404|24.113.0.0/16|US|arin|2004-01-07|AS-WAVE-1, US
24.46.48.21|6128|24.44.0.0/14|US|arin|2001-05-01|CABLE-NET-1, US
24.87.154.248|6327|24.87.152.0/22|CA|arin|2001-07-12|SHAW, CA
3.120.158.102|16509|3.120.0.0/14|US|arin|2017-12-20|AMAZON-02, US
3.17.174.43|16509|3.16.0.0/14|US|arin|2017-12-20|AMAZON-02, US
3.211.51.136|14618|3.208.0.0/12|US|arin|2018-06-25|AMAZON-AES, US
31.31.116.242|6876|31.31.96.0/19|UA|ripencc|2011-03-18|TENET-AS, UA
34.105.247.173|15169|34.104.0.0/14|US|arin|2018-09-28|GOOGLE, US
34.106.151.6|15169|34.104.0.0/14|US|arin|2018-09-28|GOOGLE, US
34.74.205.75|15169|34.72.0.0/14|US|arin|2018-09-28|GOOGLE, US
34.82.117.252|15169|34.80.0.0/14|US|arin|2018-09-28|GOOGLE, US
35.166.238.70|16509|35.160.0.0/13|US|arin|2016-08-09|AMAZON-02, US
37.135.146.127|12479|37.135.146.0/23|ES|ripencc|2012-02-21|UNI2-AS, ES
37.138.210.148|9145|37.138.0.0/16|DE|ripencc|2012-02-23|EWETEL Cloppenburger Strasse 310, DE
37.152.204.126|6871|37.152.192.0/18|GB|ripencc|2012-03-12|PLUSNET UK Internet Service Provider, GB
37.24.64.85|3209|37.24.0.0/17|DE|ripencc|2011-12-22|VODANET International IP-Backbone of Vodafone, DE
37.48.125.238|60781|37.48.64.0/18|NL|ripencc|2012-01-24|LEASEWEB-NL-AMS-01 Netherlands, NL
45.9.188.239|47583|45.9.188.0/22|DE|ripencc|2019-04-23|AS-HOSTINGER, CY
46.141.95.133|49524|46.141.0.0/17|IT|ripencc|2010-11-22|WOLNEXT, IT
46.23.87.218|3265|46.23.80.0/20|NL|ripencc|2010-12-02|XS4ALL-NL Amsterdam, NL
46.4.94.175|24940|46.4.0.0/16|DE|ripencc|2010-08-19|HETZNER-AS, DE
46.59.232.188|15943|46.59.128.0/17|DE|ripencc|2010-10-21|WTNET-AS wilhelm.tel GmbH, DE
47.108.65.144|37963|47.108.0.0/16|CN|apnic|1989-01-06|CNNIC-ALIBABA-CN-NET-AP Hangzhou Alibaba Advertising Co.,Ltd., CN
49.177.103.146|4804|49.177.64.0/18|AU|apnic|2010-12-02|MPX-AS Microplex PTY LTD, AU
5.200.47.22|48096|5.200.47.0/24|RU|ripencc|2012-08-30|ITGRAD, RU
5.254.101.226|3223|5.254.96.0/21|GB|ripencc|2012-09-13|VOXILITY, GB
5.9.155.54|24940|5.9.0.0/16|DE|ripencc|2012-04-25|HETZNER-AS, DE
51.15.138.91|12876|51.15.0.0/16|FR|ripencc|1993-09-01|Online SAS, FR
51.77.52.201|16276|51.77.0.0/16|FR|ripencc|1993-09-01|OVH, FR
52.138.144.107|8075|52.136.0.0/13|US|arin|2015-11-24|MICROSOFT-CORP-MSN-AS-BLOCK, US
54.38.177.175|16276|54.38.0.0/16|FR|ripencc|1992-03-17|OVH, FR
60.225.197.98|1221|60.224.0.0/13|AU|apnic|2004-07-28|ASN-TELSTRA Telstra Corporation Ltd, AU
62.138.206.160|61157|62.138.192.0/20|DE|ripencc|2000-09-19|PLUSSERVER-ASN1, DE
64.201.87.233|21555|64.201.80.0/21|US|arin|2007-01-09|LHTC, US
65.31.247.102|10796|65.31.224.0/19|US|arin|2000-08-22|TWC-10796-MIDWEST, US
66.194.38.42|35863|66.194.38.0/24|US|arin|2001-10-25|TELCO214US1, US
68.39.190.185|7922|68.32.0.0/11|US|arin|2001-11-29|COMCAST-7922, US
72.50.240.124|393238|72.50.240.0/24|US|arin|2008-03-24|IMONC, US
72.95.19.38|701|72.95.0.0/18|US|arin|2005-06-24|UUNET, US
75.119.135.36|51167|75.119.128.0/19|DE|ripencc|2006-05-12|CONTABO, DE
76.68.161.104|577|76.68.0.0/16|CA|arin|2006-12-04|BACOM, CA
78.46.86.12|24940|78.46.0.0/15|DE|ripencc|2007-04-16|HETZNER-AS, DE
78.94.132.235|3209|78.94.128.0/17|DE|ripencc|2007-07-20|VODANET International IP-Backbone of Vodafone, DE
79.152.248.16|3352|79.152.0.0/16|ES|ripencc|2007-06-07|TELEFONICA_DE_ESPANA, ES
79.218.128.122|3320|79.192.0.0/10|DE|ripencc|2007-06-06|DTAG Internet service provider operations, DE
8.209.108.240|45102|8.209.96.0/19|SG|apnic|1992-12-01|CNNIC-ALIBABA-US-NET-AP Alibaba (US) Technology Co., Ltd., CN
8.210.41.142|45102|8.210.0.0/17|SG|apnic|1992-12-01|CNNIC-ALIBABA-US-NET-AP Alibaba (US) Technology Co., Ltd., CN
81.88.221.190|39709|81.88.208.0/20|RU|ripencc|2006-04-11|EXTREME-AS, RU
85.208.71.24|42275|85.208.71.0/24|FR|ripencc|2019-02-21|THREEFOURTEEN, FR
86.126.63.158|8708|86.120.0.0/13|RO|ripencc|2005-03-16|RCS-RDS 73-75 Dr. Staicovici, RO
86.31.163.247|5089|86.24.0.0/13|GB|ripencc|2005-03-29|NTL, GB
86.40.163.208|5466|86.40.0.0/13|IE|ripencc|2005-03-31|EIRCOM Internet House, IE
87.251.164.39|5563|87.251.164.0/22|RU|ripencc|2005-09-13|URAL Ural Regional Net, RU
87.79.94.221|8422|87.78.0.0/15|DE|ripencc|2005-05-31|NETCOLOGNE, DE
88.119.128.36|8764|88.119.128.0/20|LT|ripencc|2005-10-24|TELIA-LIETUVA, LT
88.98.235.134|56478|88.98.192.0/18|GB|ripencc|2005-08-03|BCUBE-AS, GB
91.148.141.210|203380|91.148.141.0/24|BG|ripencc|2006-11-13|DAINTERNATIONALGROUP, GB
91.219.25.232|50448|91.219.24.0/22|RU|ripencc|2010-09-02|SYSTEM-SERVICE-AS, RU
92.200.113.118|20676|92.200.0.0/15|DE|ripencc|2007-10-17|PLUSNET *****************, DE
92.201.15.48|20676|92.200.0.0/15|DE|ripencc|2007-10-17|PLUSNET *****************, DE
94.141.169.64|34602|94.141.160.0/19|RU|ripencc|2010-07-07|STARLINK-AS Moscow, Russia, RU
94.208.33.68|33915|94.208.0.0/14|NL|ripencc|2008-07-22|TNF-AS, NL
94.75.207.99|60781|94.75.192.0/18|NL|ripencc|2008-07-24|LEASEWEB-NL-AMS-01 Netherlands, NL
95.182.113.34|48780|95.182.112.0/23|CZ|ripencc|2009-02-05|ROSTELECOM-AS, CZ
95.217.145.249|24940|95.217.0.0/16|DE|ripencc|2009-02-24|HETZNER-AS, DE
96.228.28.74|701|96.228.0.0/18|US|arin|2006-12-29|UUNET, US
96.255.84.96|701|96.255.0.0/16|US|arin|2006-12-29|UUNET, US
97.81.244.191|20115|97.81.240.0/20|US|arin|2007-03-21|CHARTER-20115, US
