# bitcoin dns seeds and whois results
IP Address|ASN|BGP Prefix|CC|Registry|Allocated|AS Name
101.165.169.151|1221|101.160.0.0/11|AU|apnic|2010-12-23|ASN-TELSTRA Telstra Corporation Ltd, AU
109.195.103.190|51604|109.195.96.0/20|RU|ripencc|2009-10-27|EKAT-AS, RU
109.238.46.186|15935|109.238.32.0/20|CZ|ripencc|2010-01-20|HA-VEL-LOCAL-AS Czech republic, CZ
109.99.63.159|9050|109.99.0.0/16|RO|ripencc|2009-07-21|RTD Bucharest, Romania, RO
122.199.37.252|38195|122.199.36.0/22|AU|apnic|2006-09-19|SUPERLOOP-AS-AP Superloop, AU
13.211.79.130|16509|13.210.0.0/15|US|arin|2019-10-01|AMAZON-02, US
138.68.23.64|14061|138.68.16.0/20|US|arin|2016-01-26|DIGITALOCEAN-ASN, US
142.202.220.66|13830|142.202.220.0/22|US|arin|2019-12-27|NEXRIL, US
144.2.72.133|57370|144.2.64.0/20|CH|ripencc|1993-09-01|WINGO, CH
158.140.209.79|9310|158.140.209.0/24|AU|apnic|1992-03-10|MYREPUBLICNETS-AS-AP MYREPUBLIC PTY LTD, AU
164.68.124.225|51167|164.68.124.0/23|DE|ripencc|1992-12-17|CONTABO, DE
166.70.94.106|6315|166.70.0.0/16|US|arin|1997-02-19|XMISSION, US
173.249.30.201|51167|173.249.30.0/23|DE|ripencc|2010-05-26|CONTABO, DE
173.249.53.75|51167|173.249.52.0/23|DE|ripencc|2010-05-26|CONTABO, DE
178.255.42.126|197155|178.255.42.0/24|PL|ripencc|2010-07-01|ARTNET, PL
178.79.83.93|3212|178.79.64.0/18|SI|ripencc|2010-05-07|TELEMACH Broadband Access & Carrier Services, SI
18.183.139.213|16509|18.183.0.0/16|US|arin|2019-10-07|AMAZON-02, US
18.27.79.17|3|18.27.0.0/16|US|arin|1994-01-01|MIT-GATEWAYS, US
184.105.242.147|6939|184.104.0.0/15|US|arin|2010-05-10|HURRICANE, US
185.131.63.83|44489|185.131.60.0/22|CZ|ripencc|2015-12-15|STARNET, CZ
185.80.219.133|59702|185.80.216.0/22|SE|ripencc|2014-12-10|JUNET, SE
188.241.120.48|25369|188.241.120.0/24|GB|ripencc|2009-06-23|BANDWIDTH-AS, GB
189.5.164.2|28573|189.5.128.0/18|BR|lacnic|2006-09-06|CLARO S.A., BR
207.244.227.33|40021|207.244.224.0/20|US|arin|2021-05-07|CONTABO, US
31.47.202.112|34385|31.47.200.0/21|SE|ripencc|2011-03-22|TRIPNET, SE
34.125.112.156|15169|34.124.0.0/14|US|arin|2018-09-28|GOOGLE, US
34.64.138.127|139070|34.64.0.0/16|US|arin|2018-09-28|GOOGLE-AS-AP Google Asia Pacific Pte. Ltd., SG
35.205.67.145|15169|35.204.0.0/15|US|arin|2017-03-21|GOOGLE, US
37.138.243.12|9145|37.138.0.0/16|DE|ripencc|2012-02-23|EWETEL Cloppenburger Strasse 310, DE
45.135.4.143|25596|45.135.4.0/22|NL|ripencc|2019-07-29|CAMBRIUM-AS, NL
46.166.161.25|16125|46.166.160.0/21|LT|ripencc|2010-12-16|CHERRYSERVERS1-AS, LT
47.199.77.21|5650|47.196.0.0/14|US|arin|2015-08-28|FRONTIER-FRTR, US
5.102.146.99|59414|5.102.144.0/21|CH|ripencc|2012-06-27|CLOUDSCALE, CH
5.9.7.62|24940|5.9.0.0/16|DE|ripencc|2012-04-25|HETZNER-AS, DE
51.75.145.71|16276|51.75.0.0/16|FR|ripencc|1993-09-01|OVH, FR
52.59.218.170|16509|52.58.0.0/15|US|arin|1991-12-19|AMAZON-02, US
52.77.156.14|16509|52.77.0.0/16|US|arin|1991-12-19|AMAZON-02, US
64.111.121.119|26347|64.111.96.0/19|US|arin|2005-03-07|DREAMHOST-AS, US
64.235.64.201|25769|64.235.64.0/19|US|arin|2002-09-11|GVTEL, US
74.105.31.86|701|74.105.0.0/16|US|arin|2009-01-26|UUNET, US
76.91.24.78|20001|76.90.0.0/15|US|arin|2006-12-22|TWC-20001-PACWEST, US
80.234.29.165|12389|80.234.0.0/17|RU|ripencc|2008-01-29|ROSTELECOM-AS, RU
81.171.22.143|60781|81.171.0.0/19|NL|ripencc|2003-05-12|LEASEWEB-NL-AMS-01 Netherlands, NL
97.126.39.208|209|97.126.0.0/16|US|arin|2007-12-19|CENTURYLINK-US-LEGACY-QWEST, US
97.84.232.105|20115|97.84.224.0/19|US|arin|2007-03-21|CHARTER-20115, US
99.147.135.161|7018|99.146.0.0/15|US|arin|2007-08-29|ATT-INTERNET4, US
