# bitcoin dns seeds and whois results
IP Address|ASN|BGP Prefix|CC|Registry|Allocated|AS Name
105.233.37.163|36874|105.233.0.0/17|ZA|afrinic|2012-08-01|Cybersmart, ZA
108.198.104.10|7018|108.192.0.0/10|US|arin|2011-01-12|ATT-INTERNET4, US
109.207.79.248|44709|109.207.79.0/24|IL|ripencc|2018-08-30|CLOUDWEBMANAGE-, IL
112.213.179.18|9443|112.213.128.0/18|AU|apnic|2009-02-19|VOCUS-RETAIL-AU Vocus Retail, AU
121.147.84.120|4766|121.144.0.0/13|KR|apnic|2006-04-07|KIXS-AS-KR Korea Telecom, KR
13.236.100.67|16509|13.236.0.0/14|US|arin|2019-10-01|AMAZON-02, US
14.116.205.182|4134|14.112.0.0/12|CN|apnic|2010-09-06|CHINANET-BACKBONE No.31,Jin-rong Street, CN
148.170.212.44|396287|148.170.192.0/19|US|arin|2019-03-18|NEXTPOWEREDBYNAECLLC, US
148.251.68.199|24940|148.251.0.0/16|DE|ripencc|1993-09-01|HETZNER-AS, DE
148.66.50.234|45753|148.66.50.0/24|HK|apnic|1991-04-11|NETSEC-HK NETSEC, HK
15.188.83.52|16509|15.188.0.0/16|US|arin|2021-01-28|AMAZON-02, US
158.130.48.250|55|158.130.0.0/16|US|arin|1992-03-18|UPENN, US
158.140.209.79|9310|158.140.209.0/24|AU|apnic|1992-03-10|MYREPUBLICNETS-AS-AP MYREPUBLIC PTY LTD, AU
158.69.72.5|16276|158.69.0.0/16|CA|arin|2015-06-15|OVH, FR
161.53.201.185|2108|161.53.0.0/16|HR|ripencc|1993-09-01|CARNET-AS J.Marohnica 5, 10000 Zagreb, HR
161.97.109.229|51167|161.97.108.0/23|DE|ripencc|1992-06-23|CONTABO, DE
165.227.84.200|14061|165.227.80.0/20|US|arin|2016-10-06|DIGITALOCEAN-ASN, US
167.71.98.172|14061|167.71.96.0/20|US|arin|2019-04-24|DIGITALOCEAN-ASN, US
168.119.176.229|24940|168.119.0.0/16|DE|ripencc|1994-04-05|HETZNER-AS, DE
172.103.217.236|25668|172.103.128.0/17|CA|arin|2015-06-22|CIPHERKEY, CA
173.212.247.235|51167|173.212.240.0/21|DE|ripencc|2009-10-26|CONTABO, DE
173.249.5.183|51167|173.249.4.0/23|DE|ripencc|2010-05-26|CONTABO, DE
176.191.182.3|5410|176.128.0.0/10|FR|ripencc|2011-07-06|BOUYGTEL-ISP, FR
176.97.247.9|60529|176.97.240.0/21|CZ|ripencc|2011-10-07|PRASLAVICENET, CZ
178.132.1.55|49981|178.132.0.0/21|NL|ripencc|2011-09-28|WORLDSTREAM, NL
178.162.210.17|28753|178.162.192.0/18|DE|ripencc|2010-02-05|LEASEWEB-DE-FRA-10, DE
178.238.227.217|51167|178.238.226.0/23|DE|ripencc|2010-07-28|CONTABO, DE
178.79.83.93|3212|178.79.64.0/18|SI|ripencc|2010-05-07|TELEMACH Broadband Access & Carrier Services, SI
179.235.222.78|28573|179.235.192.0/19|BR|lacnic|2012-11-14|CLARO S.A., BR
18.189.25.243|16509|18.189.0.0/16|US|arin|2019-10-07|AMAZON-02, US
184.170.69.117|4922|184.170.64.0/20|US|arin|2011-02-04|SHENTEL, US
185.108.244.41|21232|185.108.244.0/22|CH|ripencc|2015-07-14|GGAMAUR, CH
185.145.128.21|204196|185.145.128.0/22|NL|ripencc|2016-04-01|ABELOHOST, NL
185.180.220.12|49981|185.180.220.0/22|NL|ripencc|2016-12-07|WORLDSTREAM, NL
185.184.79.226|49505|185.184.79.0/24|RU|ripencc|2017-01-03|SELECTEL, RU
188.155.94.34|6730|188.154.0.0/15|CH|ripencc|2009-05-08|SUNRISE, CH
188.210.50.32|42652|188.210.0.0/18|DE|ripencc|2009-05-08|DELUNET, DE
188.68.53.44|197540|188.68.48.0/21|DE|ripencc|2009-08-25|NETCUP-AS netcup GmbH, DE
190.177.110.142|22927|190.176.0.0/15|AR|lacnic|2008-03-11|Telefonica de Argentina, AR
193.58.196.212|5578|193.58.196.0/23|SK|ripencc|1997-01-21|AS-BENESTRA Bratislava, Slovak Republic, SK
194.14.246.205|50066|194.14.246.0/24|SE|ripencc|1993-12-09|SRSTUBES-AS, SE
194.96.188.81|1901|194.96.0.0/16|AT|ripencc|1996-06-12|EUNETAT-AS A1 Telekom Austria AG, AT
195.134.168.164|39647|195.134.168.0/21|NL|ripencc|2012-03-07|REDHOSTING-AS, NL
199.47.254.80|16803|199.47.248.0/21|US|arin|2010-10-20|MYAKKATECH1, US
2.200.165.2|3209|2.200.0.0/14|DE|ripencc|2010-11-18|VODANET International IP-Backbone of Vodafone, DE
2.28.44.209|12576|2.28.0.0/16|GB|ripencc|2010-09-21|EE Ltd, GB
2.29.229.68|12576|2.29.0.0/16|GB|ripencc|2010-09-21|EE Ltd, GB
2.4.129.46|3215|2.4.0.0/16|FR|ripencc|2010-07-12|France Telecom - Orange, FR
2.49.99.129|5384|2.49.96.0/19|AE|ripencc|2010-05-28|EMIRATES-INTERNET Emirates Internet, AE
206.189.63.80|14061|206.189.48.0/20|US|arin|1995-11-15|DIGITALOCEAN-ASN, US
207.253.27.72|395075|207.253.27.0/24|CA|arin|1996-11-22|AS-COPR, CA
213.193.83.251|6830|213.193.64.0/19|CH|ripencc|2000-10-27|LIBERTYGLOBAL Liberty Global (formerly UPC Broadband Holding, aka AORTA), NL
213.93.145.183|33915|213.93.128.0/17|NL|ripencc|2000-05-09|TNF-AS, NL
217.64.133.220|60098|217.64.128.0/21|RU|ripencc|2008-10-29|INSITINVEST-AS, RU
24.141.166.152|7992|24.141.0.0/16|CA|arin|1999-05-03|COGECOWAVE, CA
24.222.43.8|11260|24.222.32.0/20|CA|arin|1998-05-22|EASTLINK-HSI, CA
3.104.224.80|16509|3.104.0.0/14|US|arin|2017-12-20|AMAZON-02, US
3.15.37.142|16509|3.14.0.0/15|US|arin|2017-12-20|AMAZON-02, US
3.236.255.16|14618|3.224.0.0/12|US|arin|2018-06-25|AMAZON-AES, US
3.35.166.20|16509|3.34.0.0/15|US|arin|2017-12-20|AMAZON-02, US
3.96.170.113|16509|3.96.0.0/15|US|arin|2017-12-20|AMAZON-02, US
31.17.70.80|3209|31.16.0.0/14|DE|ripencc|2011-03-24|VODANET International IP-Backbone of Vodafone, DE
32.214.183.114|46690|32.208.0.0/12|US|arin|1990-05-30|SNET-FCC, US
34.105.19.97|15169|34.104.0.0/14|US|arin|2018-09-28|GOOGLE, US
35.180.33.119|16509|35.180.0.0/16|US|arin|2016-08-09|AMAZON-02, US
35.204.137.151|15169|35.204.0.0/15|US|arin|2017-03-21|GOOGLE, US
35.209.182.232|15169|35.208.0.0/15|US|arin|2017-09-29|GOOGLE, US
35.228.85.207|15169|35.228.0.0/14|US|arin|2017-09-29|GOOGLE, US
37.209.12.181|3209|37.209.0.0/18|DE|ripencc|2012-03-29|VODANET International IP-Backbone of Vodafone, DE
37.44.238.43|49434|37.44.238.0/24|FR|ripencc|2018-11-12|HARMONYHOSTING-AS, FR
46.165.254.247|28753|46.165.192.0/18|DE|ripencc|2010-12-13|LEASEWEB-DE-FRA-10, DE
46.166.174.76|16125|46.166.168.0/21|LT|ripencc|2010-12-16|CHERRYSERVERS1-AS, LT
46.226.108.234|29169|46.226.108.0/22|FR|ripencc|2011-01-21|GANDI-AS Domain name registrar - http://www.gandi.net, FR
47.108.21.116|37963|47.108.0.0/16|CN|apnic|1989-01-06|CNNIC-ALIBABA-CN-NET-AP Hangzhou Alibaba Advertising Co.,Ltd., CN
47.117.139.164|37963|47.117.128.0/17|CN|apnic|1989-01-06|CNNIC-ALIBABA-CN-NET-AP Hangzhou Alibaba Advertising Co.,Ltd., CN
47.160.45.112|5650|47.160.0.0/18|US|arin|2015-08-28|FRONTIER-FRTR, US
47.26.14.216|20115|47.26.0.0/17|US|arin|2017-11-27|CHARTER-20115, US
49.176.217.40|4804|49.176.216.0/21|AU|apnic|2010-12-02|MPX-AS Microplex PTY LTD, AU
5.188.56.51|49505|5.188.56.0/22|RU|ripencc|2012-08-09|SELECTEL, RU
5.189.150.28|51167|5.189.144.0/20|DE|ripencc|2012-08-09|CONTABO, DE
5.39.74.166|16276|5.39.0.0/17|FR|ripencc|2012-05-15|OVH, FR
5.9.16.76|24940|5.9.0.0/16|DE|ripencc|2012-04-25|HETZNER-AS, DE
5.9.5.171|24940|5.9.0.0/16|DE|ripencc|2012-04-25|HETZNER-AS, DE
5.9.8.28|24940|5.9.0.0/16|DE|ripencc|2012-04-25|HETZNER-AS, DE
50.2.13.164|62904|50.2.12.0/23|US|arin|2010-06-25|EONIX-COMMUNICATIONS-ASBLOCK-62904, US
51.15.138.91|12876|51.15.0.0/16|FR|ripencc|1993-09-01|Online SAS, FR
51.174.206.76|29695|51.174.0.0/15|NO|ripencc|1993-09-01|ALTIBOX_AS Norway, NO
51.255.149.249|16276|51.254.0.0/15|FR|ripencc|1993-09-01|OVH, FR
51.83.67.9|16276|51.83.0.0/16|FR|ripencc|1993-09-01|OVH, FR
52.64.105.31|16509|52.64.0.0/17|US|arin|1991-12-19|AMAZON-02, US
60.225.197.98|1221|60.224.0.0/13|AU|apnic|2004-07-28|ASN-TELSTRA Telstra Corporation Ltd, AU
63.247.147.166|30221|63.247.144.0/20|US|arin|2007-04-11|T3COM, US
68.183.186.231|14061|68.183.176.0/20|US|arin|2018-09-18|DIGITALOCEAN-ASN, US
78.26.26.146|202204|78.26.0.0/18|NO|ripencc|2007-08-29|TROLLFJORD, NO
8.209.78.101|45102|8.209.64.0/19|SG|apnic|1992-12-01|CNNIC-ALIBABA-US-NET-AP Alibaba (US) Technology Co., Ltd., CN
8.210.194.45|45102|8.210.128.0/17|SG|apnic|1992-12-01|CNNIC-ALIBABA-US-NET-AP Alibaba (US) Technology Co., Ltd., CN
80.3.41.245|5089|80.3.0.0/17|GB|ripencc|2001-04-25|NTL, GB
82.148.25.100|49505|82.148.24.0/22|RU|ripencc|2003-07-10|SELECTEL, RU
82.148.25.98|49505|82.148.24.0/22|RU|ripencc|2003-07-10|SELECTEL, RU
82.221.143.75|50613|82.221.128.0/19|IS|ripencc|2003-12-11|THORDC-AS, IS
82.64.131.93|12322|82.64.0.0/14|FR|ripencc|2003-04-03|PROXAD, FR
84.213.92.152|41164|84.213.0.0/17|NO|ripencc|2005-07-07|GET-NO GET Norway, NO
86.105.72.229|12302|86.105.72.0/21|RO|ripencc|2005-04-18|VODAFONE_RO Charles de Gaulle nr.15, RO
86.111.88.138|39608|86.111.64.0/19|UA|ripencc|2008-12-03|LANETUA-AS, UA
87.75.105.186|25310|87.74.0.0/15|GB|ripencc|2005-05-11|ASN-CWACCESS, GB
87.79.94.221|8422|87.78.0.0/15|DE|ripencc|2005-05-31|NETCOLOGNE, DE
88.202.183.8|13213|88.202.176.0/20|GB|ripencc|2005-11-22|UK2NET-AS, GB
91.209.51.131|48239|91.209.51.0/24|UA|ripencc|2008-10-22|ITTV-AS Kiev, Ukraine, UA
91.3.72.15|3320|91.0.0.0/10|DE|ripencc|2006-07-03|DTAG Internet service provider operations, DE
94.16.175.196|15600|94.16.128.0/17|CH|ripencc|2008-06-05|FINECOM Quickline AG, CH
94.176.238.212|62282|94.176.232.0/21|LT|ripencc|2008-08-14|RACKRAY UAB Rakrejus, LT
94.23.214.15|16276|94.23.0.0/16|FR|ripencc|2008-07-15|OVH, FR
95.216.23.174|24940|95.216.0.0/16|DE|ripencc|2009-02-24|HETZNER-AS, DE
96.43.141.234|19969|96.43.128.0/20|US|arin|2009-10-16|JOESDATACENTER, US
96.47.114.108|397122|96.47.112.0/20|US|arin|2009-11-17|NORVADO-NET, US
96.48.243.148|6327|96.48.240.0/22|CA|arin|2008-01-07|SHAW, CA
98.157.100.159|10796|98.157.96.0/20|US|arin|2007-12-18|TWC-10796-MIDWEST, US
