# bitcoin dns seeds and whois results
IP Address|ASN|BGP Prefix|CC|Registry|Allocated|AS Name
107.178.98.66|53755|107.178.64.0/18|US|arin|2014-02-10|IOFLOOD, US
108.26.60.38|701|108.26.0.0/18|US|arin|2009-06-05|UUNET, US
109.164.231.240|3303|109.164.192.0/18|CH|ripencc|2009-10-15|SWISSCOM Swisscom (Switzerland) Ltd, CH
109.173.41.43|42610|109.173.0.0/17|RU|ripencc|2009-11-20|NCNET-AS, RU
109.250.129.86|8881|109.250.128.0/20|DE|ripencc|2009-12-01|VERSATEL, DE
116.203.143.6|24940|116.203.0.0/16|DE|ripencc|2011-01-17|HETZNER-AS, DE
123.115.223.138|4808|123.115.192.0/18|CN|apnic|2007-01-29|CHINA169-BJ China Unicom Beijing Province Network, CN
124.35.95.140|17506|124.32.0.0/14|JP|apnic|2005-12-21|UCOM ARTERIA Networks Corporation, JP
13.229.85.59|16509|13.228.0.0/15|US|arin|2019-10-01|AMAZON-02, US
13.233.14.14|16509|13.232.0.0/14|US|arin|2019-10-01|AMAZON-02, US
13.53.40.179|16509|13.53.0.0/16|US|arin|2020-08-05|AMAZON-02, US
136.243.104.27|24940|136.243.0.0/16|DE|ripencc|2004-04-14|HETZNER-AS, DE
136.244.65.212|20473|136.244.64.0/20|US|arin|2019-04-08|AS-CHOOPA, US
142.54.181.218|33387|142.54.160.0/19|US|arin|2012-05-18|NOCIX, US
145.239.144.32|16276|145.239.0.0/16|FR|ripencc|1993-08-03|OVH, FR
148.170.212.44|396287|148.170.192.0/19|US|arin|2019-03-18|NEXTPOWEREDBYNAECLLC, US
149.172.180.66|3209|149.172.128.0/17|DE|ripencc|2011-08-03|VODANET International IP-Backbone of Vodafone, DE
151.29.118.105|1267|151.29.0.0/16|IT|ripencc|1991-05-13|ASN-WINDTRE IUNET, IT
167.99.179.226|14061|167.99.176.0/20|US|arin|2017-11-10|DIGITALOCEAN-ASN, US
168.119.104.7|24940|168.119.0.0/16|DE|ripencc|1994-04-05|HETZNER-AS, DE
168.119.140.58|24940|168.119.0.0/16|DE|ripencc|1994-04-05|HETZNER-AS, DE
168.119.167.40|24940|168.119.0.0/16|DE|ripencc|1994-04-05|HETZNER-AS, DE
170.106.34.74|132203|170.106.32.0/22|SG|apnic|1994-03-25|TENCENT-NET-AP-CN Tencent Building, Kejizhongyi Avenue, CN
173.212.235.237|51167|173.212.224.0/20|DE|ripencc|2009-10-26|CONTABO, DE
176.205.222.110|5384|176.205.192.0/19|AE|ripencc|2011-08-10|EMIRATES-INTERNET Emirates Internet, AE
176.223.141.74|62282|176.223.128.0/20|LT|ripencc|2011-11-29|RACKRAY UAB Rakrejus, LT
176.61.60.76|6830|176.61.0.0/18|IE|ripencc|2011-06-07|LIBERTYGLOBAL Liberty Global (formerly UPC Broadband Holding, aka AORTA), NL
178.150.96.46|13188|178.150.96.0/24|UA|ripencc|2010-04-15|TRIOLAN, UA
178.18.245.204|51167|178.18.240.0/20|DE|ripencc|2010-04-27|CONTABO, DE
178.79.83.93|3212|178.79.64.0/18|SI|ripencc|2010-05-07|TELEMACH Broadband Access & Carrier Services, SI
18.163.194.25|16509|18.163.0.0/16|US|arin|2019-10-07|AMAZON-02, US
182.55.245.25|4657|182.55.245.0/24|SG|apnic|2010-03-01|STARHUB-INTERNET StarHub Ltd, SG
185.165.168.196|200651|185.165.168.0/24|SC|ripencc|2016-08-26|FLOKINET, SC
185.17.143.220|48757|185.17.140.0/22|RU|ripencc|2013-01-30|TRUSTINFO TrustInfo, Moscow, Russia, RU
185.215.227.56|40676|185.215.227.0/24|GB|ripencc|2017-08-02|AS40676, US
185.228.137.238|197540|185.228.136.0/22|DE|ripencc|2017-10-27|NETCUP-AS netcup GmbH, DE
186.32.212.112|262197|186.32.212.0/23|CR|lacnic|2011-06-24|MILLICOM CABLE COSTA RICA S.A., CR
188.134.5.135|41733|188.134.0.0/17|RU|ripencc|2009-04-27|ZTELECOM-AS, RU
188.134.8.36|41733|188.134.0.0/17|RU|ripencc|2009-04-27|ZTELECOM-AS, RU
188.43.5.49|20485|188.43.0.0/16|RU|ripencc|2009-04-27|TRANSTELECOM Moscow, Russia, RU
188.62.228.243|3303|188.62.0.0/16|CH|ripencc|2009-03-10|SWISSCOM Swisscom (Switzerland) Ltd, CH
188.85.61.1|12430|188.84.0.0/14|ES|ripencc|2009-04-29|VODAFONE_ES, ES
193.169.244.190|42159|193.169.244.0/23|UA|ripencc|2009-08-13|DELTAHOST-AS, UA
194.135.135.69|25227|194.135.135.0/24|RU|ripencc|1995-02-06|ASN-AVANTEL-MSK Located in Moscow, Russia., RU
195.139.204.20|2116|195.139.0.0/16|NO|ripencc|1997-05-09|ASN-CATCHCOM, NO
195.201.35.229|24940|195.201.0.0/16|DE|ripencc|1997-09-22|HETZNER-AS, DE
198.100.144.20|16276|198.100.144.0/20|CA|arin|2012-07-05|OVH, FR
200.58.109.75|27823|200.58.109.0/24|AR|lacnic|2008-05-21|Dattatec.com, AR
205.234.55.26|6058|205.234.54.0/23|CA|arin|2004-04-06|NORTHWESTEL-INC, CA
208.73.156.62|40447|208.73.156.0/22|US|arin|2017-02-08|SKYHAWK-GROUP, US
209.188.31.52|20454|209.188.0.0/19|US|arin|2004-05-18|SSASN2, US
211.251.235.65|4766|211.250.0.0/15|KR|apnic|2000-09-08|KIXS-AS-KR Korea Telecom, KR
212.91.163.140|8717|212.91.160.0/19|BG|ripencc|1999-07-30|A1, BG
213.183.32.174|56630|213.183.32.0/24|LT|ripencc|2008-10-28|MELBICOM-EU-AS Melbikomas UAB, LT
23.175.0.202|395502|23.175.0.0/24|US|arin|2016-10-26|JCOLO, US
23.233.55.92|5645|23.233.0.0/17|CA|arin|2013-09-24|TEKSAVVY, CA
27.109.153.99|4609|27.109.128.0/19|MO|apnic|2010-06-10|CTM-MO Companhia de Telecomunicacoes de Macau SARL, MO
3.18.101.80|16509|3.16.0.0/14|US|arin|2017-12-20|AMAZON-02, US
31.25.241.206|39741|31.25.241.0/24|RU|ripencc|2011-03-10|DCE-AS, RU
34.235.144.59|14618|34.224.0.0/12|US|arin|2016-09-12|AMAZON-AES, US
34.64.138.114|139070|34.64.0.0/16|US|arin|2018-09-28|GOOGLE-AS-AP Google Asia Pacific Pte. Ltd., SG
34.86.94.66|15169|34.84.0.0/14|US|arin|2018-09-28|GOOGLE, US
35.181.8.232|16509|35.181.0.0/16|US|arin|2016-08-09|AMAZON-02, US
37.1.200.82|58061|37.1.200.0/21|GB|ripencc|2011-12-13|SCALAXY-AS, NL
37.187.117.135|16276|37.187.0.0/16|FR|ripencc|2012-03-20|OVH, FR
39.105.92.8|37963|39.104.0.0/15|CN|apnic|2011-04-05|CNNIC-ALIBABA-CN-NET-AP Hangzhou Alibaba Advertising Co.,Ltd., CN
45.151.125.238|212663|45.151.125.0/24|PL|ripencc|2019-09-10|REMOTE-ADMIN-AS, PL
45.33.71.148|63949|45.33.64.0/19|US|arin|2015-03-20|LINODE-AP Linode, LLC, US
46.173.50.58|49120|46.173.32.0/19|RU|ripencc|2011-01-28|GORSET-AS, RU
47.244.50.245|45102|47.244.0.0/17|US|arin|2016-04-15|CNNIC-ALIBABA-US-NET-AP Alibaba (US) Technology Co., Ltd., CN
5.39.90.110|16276|5.39.0.0/17|FR|ripencc|2012-05-15|OVH, FR
5.45.74.50|58061|5.45.72.0/22|GB|ripencc|2012-05-24|SCALAXY-AS, NL
51.75.145.71|16276|51.75.0.0/16|FR|ripencc|1993-09-01|OVH, FR
52.54.44.109|14618|52.54.0.0/15|US|arin|1991-12-19|AMAZON-AES, US
54.221.1.109|14618|54.221.0.0/16|US|arin|2014-10-23|AMAZON-AES, US
54.36.112.254|16276|54.36.0.0/16|FR|ripencc|1992-03-17|OVH, FR
60.132.121.224|17676|60.132.0.0/16|JP|apnic|2004-05-20|GIGAINFRA Softbank BB Corp., JP
67.175.253.198|7922|67.160.0.0/11|US|arin|2002-12-16|COMCAST-7922, US
67.210.228.203|7819|67.210.224.0/21|US|arin|2007-08-22|GLOBAL-IP-NETWORKS, US
68.183.186.231|14061|68.183.176.0/20|US|arin|2018-09-18|DIGITALOCEAN-ASN, US
68.194.85.201|6128|68.192.0.0/14|US|arin|2003-01-29|CABLE-NET-1, US
70.15.194.32|3737|70.15.0.0/16|US|arin|2006-09-14|AS-PTD, US
71.58.245.50|7922|71.56.0.0/13|US|arin|2005-04-29|COMCAST-7922, US
72.95.19.38|701|72.95.0.0/18|US|arin|2005-06-24|UUNET, US
73.98.227.247|7922|73.0.0.0/8|US|arin|2005-04-19|COMCAST-7922, US
74.132.5.81|10796|74.128.0.0/12|US|arin|2006-04-07|TWC-10796-MIDWEST, US
75.119.157.139|51167|75.119.128.0/19|DE|ripencc|2006-05-12|CONTABO, DE
75.164.98.255|209|75.164.0.0/16|US|arin|2006-10-24|CENTURYLINK-US-LEGACY-QWEST, US
77.56.6.24|6830|77.56.0.0/15|CH|ripencc|2006-10-19|LIBERTYGLOBAL Liberty Global (formerly UPC Broadband Holding, aka AORTA), NL
78.35.78.250|8422|78.34.0.0/15|DE|ripencc|2007-03-08|NETCOLOGNE, DE
81.10.227.233|12605|81.10.128.0/17|AT|ripencc|2002-04-16|LIWEST-AT Linz, Austria, AT
81.175.133.63|16086|81.175.128.0/17|FI|ripencc|2003-06-10|DNA, FI
82.116.50.101|30936|82.116.32.0/19|RU|ripencc|2004-01-20|RENET-COM-AS RENET COM Autonomous System, RU
82.194.153.233|8445|82.194.128.0/19|AT|ripencc|2003-10-20|SALZBURG-AG-AS, AT
82.69.119.77|13037|82.68.0.0/14|GB|ripencc|2003-04-28|ZEN-AS Zen Internet - UK, GB
83.37.216.102|3352|83.37.0.0/16|ES|ripencc|2003-12-02|TELEFONICA_DE_ESPANA, ES
85.190.0.5|29686|85.190.0.0/19|DE|ripencc|2004-12-13|PROBENETWORKS-AS, DE
85.214.103.48|6724|85.214.0.0/15|DE|ripencc|2005-02-24|STRATO STRATO AG, DE
85.214.204.63|6724|85.214.0.0/15|DE|ripencc|2005-02-24|STRATO STRATO AG, DE
85.23.95.54|16086|85.23.0.0/16|FI|ripencc|2005-04-06|DNA, FI
85.245.239.189|3243|85.240.0.0/13|PT|ripencc|2004-01-03|MEO-RESIDENCIAL, PT
86.137.145.42|2856|86.128.0.0/12|GB|ripencc|2005-02-07|BT-UK-AS BTnet UK Regional network, GB
88.119.220.136|43811|88.119.220.0/24|LT|ripencc|2005-10-24|TELIA-LIETUVA, LT
88.247.143.224|47331|88.247.140.0/22|TR|ripencc|2005-10-27|TTNET, TR
89.236.101.52|30798|89.236.64.0/18|FI|ripencc|2006-06-14|TNNET-AS TNNet Oy Main network, FI
90.152.22.234|8220|90.152.0.0/18|GB|ripencc|2006-10-24|COLT COLT Technology Services Group Limited, GB
91.11.115.170|3320|91.0.0.0/10|DE|ripencc|2006-07-03|DTAG Internet service provider operations, DE
91.148.141.211|203380|91.148.141.0/24|BG|ripencc|2006-11-13|DAINTERNATIONALGROUP, GB
91.228.45.130|197895|91.228.44.0/22|CZ|ripencc|2011-05-23|ONYX-AS ONYX engineering, spol. s r. o., CZ
94.130.179.91|24940|94.130.0.0/16|DE|ripencc|2008-06-23|HETZNER-AS, DE
94.26.49.71|48452|94.26.49.0/24|BG|ripencc|2008-06-11|TRAFFIC-NET, BG
95.176.229.153|5603|95.176.192.0/18|SI|ripencc|2009-01-06|SIOL-NET Telekom Slovenije d.d., SI
95.179.241.15|20473|95.179.240.0/20|US|ripencc|2009-01-22|AS-CHOOPA, US
95.31.12.22|8402|95.30.0.0/15|RU|ripencc|2008-10-10|CORBINA-AS OJSC _Vimpelcom_, RU
97.126.39.208|209|97.126.0.0/16|US|arin|2007-12-19|CENTURYLINK-US-LEGACY-QWEST, US
98.17.20.170|7029|98.16.0.0/13|US|arin|2007-02-05|WINDSTREAM, US
98.244.10.63|7922|98.192.0.0/10|US|arin|2007-04-20|COMCAST-7922, US
99.192.223.18|27589|99.192.128.0/17|US|arin|2009-04-22|MOJOHOST, US
