# bitcoin dns seeds and whois results
IP Address|ASN|BGP Prefix|CC|Registry|Allocated|AS Name
103.99.170.210|54415|103.99.170.0/24|JP|apnic|2017-08-28|WIZ-JP-AS-AP WIZ K.K., JP
104.152.208.26|26832|104.152.208.0/22|CA|arin|2014-07-22|RICAWEBSERVICES, CA
109.236.94.177|49981|109.236.80.0/20|NL|ripencc|2009-12-04|WORLDSTREAM, NL
113.218.235.110|4134|113.218.0.0/15|CN|apnic|2008-12-16|CHINANET-BACKBONE No.31,Jin-rong Street, CN
116.109.70.103|7552|116.109.64.0/21|VN|apnic|2007-05-18|VIETEL-AS-AP Viettel Group, VN
118.189.187.219|4773|118.189.176.0/20|SG|apnic|2007-10-19|MOBILEONELTD-AS-AP MobileOne Ltd. Mobile/Internet Service Provider Singapore, SG
129.21.34.19|4385|129.21.0.0/16|US|arin|1987-07-14|RIT-ASN, US
13.127.94.172|16509|13.126.0.0/15|US|arin|2016-08-09|AMAZON-02, US
132.204.108.155|376|132.204.0.0/16|CA|arin|1989-06-14|RISQ-AS, CA
135.181.1.50|24940|135.181.0.0/16|DE|ripencc|1996-04-30|HETZNER-AS, DE
136.243.134.233|24940|136.243.0.0/16|DE|ripencc|2004-04-14|HETZNER-AS, DE
139.180.180.11|20473|139.180.176.0/21|US|apnic|1993-04-08|AS-CHOOPA, US
144.76.137.181|24940|144.76.0.0/16|DE|ripencc|1990-11-16|HETZNER-AS, DE
144.76.82.165|24940|144.76.0.0/16|DE|ripencc|1990-11-16|HETZNER-AS, DE
159.65.99.102|14061|159.65.96.0/20|US|arin|2017-10-24|DIGITALOCEAN-ASN, US
162.219.197.152|11550|162.219.196.0/22|US|arin|2013-08-16|SDL-20-AS, US
168.119.158.58|24940|168.119.0.0/16|DE|ripencc|1994-04-05|HETZNER-AS, DE
168.119.163.115|24940|168.119.0.0/16|DE|ripencc|1994-04-05|HETZNER-AS, DE
173.212.214.113|51167|173.212.192.0/19|DE|ripencc|2009-10-26|CONTABO, DE
178.128.250.140|14061|178.128.240.0/20|US|ripencc|2010-03-03|DIGITALOCEAN-ASN, US
178.159.1.148|42831|178.159.0.0/20|GB|ripencc|2010-08-19|UKSERVERS-AS UK Dedicated Servers, Hosting and Co-Location, GB
178.18.242.211|51167|178.18.240.0/20|DE|ripencc|2010-04-27|CONTABO, DE
178.238.123.43|29226|178.238.112.0/20|RU|ripencc|2010-07-16|MASTERTEL-AS Moscow, Russia, RU
178.79.83.93|3212|178.79.64.0/18|SI|ripencc|2010-05-07|TELEMACH Broadband Access & Carrier Services, SI
18.166.15.242|16509|18.166.0.0/15|US|arin|2019-10-07|AMAZON-02, US
180.150.58.14|4764|180.150.56.0/22|AU|apnic|2009-09-01|WIDEBAND-AS-AP Aussie Broadband, AU
181.117.128.4|11664|181.117.128.0/21|AR|lacnic|2013-02-04|Techtel LMDS Comunicaciones Interactivas S.A., AR
184.105.70.100|6939|184.104.0.0/15|US|arin|2010-05-10|HURRICANE, US
185.215.227.56|40676|185.215.227.0/24|GB|ripencc|2017-08-02|AS40676, US
185.233.148.146|60118|185.233.148.0/22|RO|ripencc|2017-11-24|CYBERSMARTSOLUTIONS-AS, RO
185.49.169.139|201746|185.49.169.0/24|ES|ripencc|2014-03-06|OLIVENET-AS, ES
185.88.153.84|42043|185.88.153.0/24|IR|ripencc|2015-02-17|BERTINATECHNOLOGYCOMPANY, IR
188.244.4.78|39709|188.244.0.0/20|RU|ripencc|2009-07-07|EXTREME-AS, RU
190.2.140.27|49981|190.2.128.0/20|CW|lacnic|2006-04-28|WORLDSTREAM, NL
192.192.155.52|1659|192.192.0.0/16|TW|apnic|1992-07-06|ERX-TANET-ASN1 Taiwan Academic Network (TANet) Information Center, TW
192.227.80.83|13886|192.227.80.0/24|US|arin|2017-01-30|CLOUD-SOUTH, US
193.194.163.35|15825|193.194.162.0/23|GH|afrinic|2005-02-21|GDC-ASN, GH
194.26.29.152|206728|194.26.29.0/24|RU|ripencc|2019-11-20|MEDIALAND-AS, RU
195.201.95.119|24940|195.201.0.0/16|DE|ripencc|1997-09-22|HETZNER-AS, DE
202.239.42.192|4694|202.239.32.0/19|JP|apnic|1995-03-29|IDCF IDC Frontier Inc., JP
203.218.177.53|4760|203.218.160.0/19|HK|apnic|2001-01-25|HKTIMS-AP HKT Limited, HK
204.14.245.176|18918|204.14.244.0/22|US|arin|2008-12-17|UNOCOMM, US
206.188.144.184|3855|206.188.144.0/24|BM|arin|2005-07-19|LOGIC-3855, BM
210.220.150.170|38389|210.220.150.0/24|KR|apnic|1999-05-25|FWORKER-AS-KR FAMOUS WORKER, KR
212.8.250.141|49981|212.8.250.0/24|NL|ripencc|1999-09-22|WORLDSTREAM, NL
213.239.214.70|24940|213.239.192.0/18|DE|ripencc|2003-05-28|HETZNER-AS, DE
216.160.123.107|209|216.160.120.0/22|US|arin|1998-12-16|CENTURYLINK-US-LEGACY-QWEST, US
217.182.172.114|16276|217.182.0.0/16|FR|ripencc|2001-03-02|OVH, FR
217.20.130.72|5588|217.20.128.0/20|HU|ripencc|2000-09-25|GTSCE GTS Central Europe / Antel Germany, CZ
221.217.49.110|4808|221.217.0.0/18|CN|apnic|2003-11-19|CHINA169-BJ China Unicom Beijing Province Network, CN
222.222.43.29|4134|222.222.0.0/15|CN|apnic|2004-04-28|CHINANET-BACKBONE No.31,Jin-rong Street, CN
23.179.0.11|63297|23.179.0.0/24|CA|arin|2016-10-28|PACIFIC-SERVERS, CA
24.54.135.34|4181|24.54.135.0/24|US|arin|2009-04-28|TDS-AS, US
3.209.12.198|14618|3.208.0.0/12|US|arin|2018-06-25|AMAZON-AES, US
3.235.228.195|14618|3.224.0.0/12|US|arin|2018-06-25|AMAZON-AES, US
34.105.209.243|15169|34.104.0.0/14|US|arin|2018-09-28|GOOGLE, US
34.106.151.6|15169|34.104.0.0/14|US|arin|2018-09-28|GOOGLE, US
34.106.249.67|15169|34.104.0.0/14|US|arin|2018-09-28|GOOGLE, US
34.106.53.91|15169|34.104.0.0/14|US|arin|2018-09-28|GOOGLE, US
34.75.54.59|15169|34.72.0.0/14|US|arin|2018-09-28|GOOGLE, US
34.93.116.89|15169|34.92.0.0/14|US|arin|2018-09-28|GOOGLE, US
34.93.206.77|15169|34.92.0.0/14|US|arin|2018-09-28|GOOGLE, US
35.201.200.26|15169|35.200.0.0/14|US|arin|2017-03-21|GOOGLE, US
35.205.117.63|15169|35.204.0.0/15|US|arin|2017-03-21|GOOGLE, US
35.211.9.3|15169|35.211.0.0/16|US|arin|2017-09-29|GOOGLE, US
35.212.237.223|15169|35.212.128.0/17|US|arin|2017-09-29|GOOGLE, US
35.232.112.59|15169|35.232.0.0/14|US|arin|2017-09-29|GOOGLE, US
37.140.47.221|8369|37.140.0.0/17|RU|ripencc|2012-02-29|INTERSVYAZ-AS 38-B, Komsomolsky prospekt, RU
37.187.109.60|16276|37.187.0.0/16|FR|ripencc|2012-03-20|OVH, FR
37.59.61.212|16276|37.59.0.0/16|FR|ripencc|2012-01-16|OVH, FR
39.97.244.212|37963|39.96.0.0/14|CN|apnic|2011-04-05|CNNIC-ALIBABA-CN-NET-AP Hangzhou Alibaba Advertising Co.,Ltd., CN
45.92.43.12|208612|45.92.43.0/24|GB|ripencc|2019-07-01|AS-KURT, GB
46.32.50.98|39642|46.32.32.0/19|DK|ripencc|2010-08-12|DK-ESS-AS, DK
46.4.237.235|24940|46.4.0.0/16|DE|ripencc|2010-08-19|HETZNER-AS, DE
47.243.91.86|45102|47.243.0.0/16|US|arin|2016-04-15|CNNIC-ALIBABA-US-NET-AP Alibaba (US) Technology Co., Ltd., CN
47.91.228.50|45102|47.91.192.0/18|US|arin|2015-05-18|CNNIC-ALIBABA-US-NET-AP Alibaba (US) Technology Co., Ltd., CN
5.133.65.82|15440|5.133.65.0/24|LT|ripencc|2018-11-09|BALTNETA Customers AS, LT
50.35.64.236|20055|50.34.0.0/15|US|arin|2010-09-24|AS-WHOLESAIL, US
50.45.232.189|27017|50.45.128.0/17|US|arin|2010-09-24|ZIPLY-FIBER-LEGACY-ASN, US
50.5.46.195|6181|50.5.0.0/17|US|arin|2010-09-09|FUSE-NET, US
52.163.63.49|8075|52.160.0.0/11|US|arin|2015-11-24|MICROSOFT-CORP-MSN-AS-BLOCK, US
52.205.206.62|14618|52.200.0.0/13|US|arin|2015-09-02|AMAZON-AES, US
54.241.144.222|16509|54.241.128.0/19|US|arin|2012-03-01|AMAZON-02, US
58.158.0.86|17506|58.158.0.0/16|JP|apnic|2005-07-26|UCOM ARTERIA Networks Corporation, JP
62.138.18.158|8972|62.138.18.0/24|DE|ripencc|2000-09-19|GD-EMEA-DC-SXB1, DE
64.4.160.13|55293|64.4.160.0/22|US|arin|2020-08-20|A2HOSTING, US
65.38.71.6|22423|65.38.70.0/23|CA|arin|2002-06-05|ALTIMA-TELECOM, CA
67.215.5.58|36666|67.215.0.0/20|CA|arin|2007-10-08|GTCOMM, CA
69.13.39.34|54489|69.13.0.0/16|US|arin|2002-12-04|CORESPACE-DAL, US
70.112.72.204|11427|70.112.0.0/14|US|arin|2004-09-17|TWC-11427-TEXAS, US
70.95.8.84|20001|70.95.0.0/16|US|arin|2004-09-22|TWC-20001-PACWEST, US
71.120.153.82|701|71.120.128.0/17|US|arin|2005-01-18|UUNET, US
72.74.34.99|701|72.74.0.0/16|US|arin|2005-06-24|UUNET, US
74.137.220.142|10796|74.128.0.0/12|US|arin|2006-04-07|TWC-10796-MIDWEST, US
76.100.235.165|7922|76.96.0.0/11|US|arin|2007-01-02|COMCAST-7922, US
78.132.38.2|8412|78.132.0.0/17|AT|ripencc|2007-05-30|TMA Magenta Telekom, AT
78.45.35.208|16019|78.45.0.0/16|CZ|ripencc|2007-04-13|VODAFONE-CZ-AS, CZ
78.46.17.17|24940|78.46.0.0/15|DE|ripencc|2007-04-16|HETZNER-AS, DE
79.143.179.190|51167|79.143.178.0/23|DE|ripencc|2010-01-08|CONTABO, DE
79.77.133.30|9105|79.76.0.0/15|GB|ripencc|2007-06-19|TISCALI-UK TalkTalk Communications Limited, GB
80.132.125.157|3320|80.128.0.0/12|DE|ripencc|2001-08-06|DTAG Internet service provider operations, DE
80.93.213.246|20649|80.93.213.0/24|TR|ripencc|2005-07-25|ASFIBERSUNUCU, TR
82.176.164.40|15542|82.176.0.0/16|NL|ripencc|2003-08-26|ZEELANDNET DELTA Fiber Nederland, NL
86.133.36.147|2856|86.128.0.0/12|GB|ripencc|2005-02-07|BT-UK-AS BTnet UK Regional network, GB
87.27.163.99|3269|87.27.0.0/16|IT|ripencc|2005-07-13|ASN-IBSNAZ, IT
88.19.38.153|3352|88.19.0.0/16|ES|ripencc|2005-07-13|TELEFONICA_DE_ESPANA, ES
88.210.15.24|212702|88.210.0.0/20|RU|ripencc|2005-11-24|KMSKOMAS, RU
89.163.225.112|24961|89.163.128.0/17|DE|ripencc|2006-02-17|MYLOC-AS IP Backbone of myLoc managed IT AG, DE
89.233.207.145|29518|89.233.192.0/18|SE|ripencc|2006-05-16|BREDBAND2, SE
91.193.237.116|42916|91.193.236.0/23|RU|ripencc|2007-05-09|IT-AS, RU
91.219.25.232|50448|91.219.24.0/22|RU|ripencc|2010-09-02|SYSTEM-SERVICE-AS, RU
91.224.20.71|60562|91.224.20.0/23|IR|ripencc|2019-10-03|BEHDASHT-IT, IR
91.92.108.14|44901|91.92.108.0/24|CY|ripencc|2006-08-15|BELCLOUD, BG
93.177.82.226|213111|93.177.82.0/24|IT|ripencc|2020-06-09|DONE, IT
93.180.178.213|30793|93.180.160.0/19|PL|ripencc|2012-09-06|ISTS-, PL
95.105.186.195|15962|95.105.128.0/17|SK|ripencc|2008-12-01|OSK-DNI Slovakia, SK
95.216.159.206|24940|95.216.0.0/16|DE|ripencc|2009-02-24|HETZNER-AS, DE
95.82.176.138|31246|95.82.128.0/18|CZ|ripencc|2008-12-11|NETBOX-AS NETBOX Autonomous system, CZ
99.192.223.19|27589|99.192.128.0/17|US|arin|2009-04-22|MOJOHOST, US
