# bitcoin dns seeds and whois results
IP Address|ASN|BGP Prefix|CC|Registry|Allocated|AS Name
101.83.117.84|4812|101.82.0.0/15|CN|apnic|2011-01-03|CHINANET-SH-AP China Telecom (Group), CN
103.14.244.190|24482|103.14.244.0/23|SG|apnic|2012-08-13|SGGS-AS-AP SG.GS, SG
104.156.12.246|32391|104.156.0.0/20|US|arin|2014-07-16|SRCACCESS, US
104.218.16.214|19969|104.218.16.0/21|US|arin|2014-10-01|JOESDATACENTER, US
104.63.241.143|7018|104.48.0.0/12|US|arin|2014-05-06|ATT-INTERNET4, US
109.199.241.148|25374|109.199.241.0/24|BG|ripencc|2010-01-26|ESCOMBG-AS Local Internet Service Provider Bulgaria, BG
111.90.140.46|45839|111.90.140.0/24|MY|apnic|2009-06-17|SHINJIRU-MY-AS-AP Shinjiru Technology Sdn Bhd, MY
117.74.45.247|59108|117.74.32.0/19|JP|apnic|2007-07-06|KATCH-NET KATCH NETWORK INC., JP
12.191.193.202|7018|12.128.0.0/9|US|arin|1983-08-23|ATT-INTERNET4, US
13.112.175.43|16509|13.112.0.0/14|US|arin|2016-08-09|AMAZON-02, US
13.229.133.26|16509|13.228.0.0/15|US|arin|2019-10-01|AMAZON-02, US
134.209.23.58|14061|134.209.16.0/20|US|arin|2018-10-18|DIGITALOCEAN-ASN, US
136.55.36.157|16591|136.55.32.0/20|US|arin|2015-10-06|GOOGLE-FIBER, US
14.202.147.196|7545|14.202.147.0/24|AU|apnic|2010-09-14|TPG-INTERNET-AP TPG Telecom Limited, AU
144.2.116.168|57370|144.2.112.0/20|CH|ripencc|1993-09-01|WINGO, CH
158.58.188.37|57497|158.58.188.0/24|IR|ripencc|2011-11-11|FARASOSAMANEHPASARGAD, IR
161.97.160.87|51167|161.97.160.0/20|DE|ripencc|1992-06-23|CONTABO, DE
164.68.116.168|51167|164.68.116.0/23|DE|ripencc|1992-12-17|CONTABO, DE
165.22.31.80|14061|165.22.16.0/20|US|arin|2018-10-16|DIGITALOCEAN-ASN, US
165.22.65.212|14061|165.22.64.0/20|US|arin|2018-10-16|DIGITALOCEAN-ASN, US
172.248.231.59|20001|172.248.0.0/14|US|arin|2013-03-13|TWC-20001-PACWEST, US
173.231.200.117|22611|173.231.192.0/20|US|arin|2018-10-23|INMOTION, US
173.231.203.46|22611|173.231.192.0/20|US|arin|2018-10-23|INMOTION, US
174.114.102.41|812|174.114.0.0/16|CA|arin|2009-03-04|ROGERS-COMMUNICATIONS, CA
176.9.66.86|24940|176.9.0.0/16|DE|ripencc|2011-05-17|HETZNER-AS, DE
178.79.83.93|3212|178.79.64.0/18|SI|ripencc|2010-05-07|TELEMACH Broadband Access & Carrier Services, SI
18.27.79.17|3|18.27.0.0/16|US|arin|1994-01-01|MIT-GATEWAYS, US
185.165.242.32|49981|185.165.240.0/22|NL|ripencc|2016-08-31|WORLDSTREAM, NL
185.9.34.66|61373|185.9.34.0/24|GB|ripencc|2012-11-06|CTW, GB
186.50.96.197|6057|186.50.96.0/20|UY|lacnic|2009-09-03|Administracion Nacional de Telecomunicaciones, UY
188.121.252.236|29075|188.121.224.0/19|FR|ripencc|2009-05-13|IELO IELO Main Network, FR
189.213.221.174|6503|189.213.216.0/21|MX|lacnic|2014-06-12|Axtel, S.A.B. de C.V., MX
191.19.135.42|27699|191.19.128.0/18|BR|lacnic|2014-01-30|TELEFONICA BRASIL S.A, BR
193.161.86.133|51248|193.161.84.0/22|CZ|ripencc|2010-06-15|HOST-TELECOM, CZ
202.65.65.205|38195|202.65.64.0/19|AU|apnic|1999-06-22|SUPERLOOP-AS-AP Superloop, AU
206.123.128.176|396362|206.123.128.0/24|US|arin|2015-03-09|LEASEWEB-USA-NYC-11, US
207.153.20.188|10242|207.153.0.0/18|US|arin|1996-06-20|USINTERNET, US
208.110.99.105|25668|208.110.96.0/19|CA|arin|2007-04-11|CIPHERKEY, CA
209.97.189.249|14061|209.97.176.0/20|US|arin|1997-07-03|DIGITALOCEAN-ASN, US
212.51.140.155|13030|212.51.128.0/20|CH|ripencc|2008-05-06|INIT7, CH
217.155.64.107|13037|217.155.0.0/16|GB|ripencc|2002-07-03|ZEN-AS Zen Internet - UK, GB
27.124.108.19|55811|27.124.96.0/20|AU|apnic|2010-10-13|COUNTRYTELL-AU Countrytell Management Pty Ltd, AU
3.101.125.70|16509|3.101.0.0/16|US|arin|2017-12-20|AMAZON-02, US
3.112.22.239|16509|3.112.0.0/14|US|arin|2017-12-20|AMAZON-02, US
3.124.63.44|16509|3.124.0.0/14|US|arin|2017-12-20|AMAZON-02, US
3.16.175.255|16509|3.16.0.0/14|US|arin|2017-12-20|AMAZON-02, US
3.236.255.16|14618|3.224.0.0/12|US|arin|2018-06-25|AMAZON-AES, US
3.237.65.243|14618|3.224.0.0/12|US|arin|2018-06-25|AMAZON-AES, US
3.248.223.135|16509|3.248.0.0/13|US|arin|2018-06-25|AMAZON-02, US
3.25.130.248|16509|3.24.0.0/14|US|arin|2017-12-20|AMAZON-02, US
3.34.133.144|16509|3.34.0.0/15|US|arin|2017-12-20|AMAZON-02, US
3.8.133.46|16509|3.8.0.0/14|US|arin|2017-12-20|AMAZON-02, US
34.123.213.165|15169|34.120.0.0/14|US|arin|2018-09-28|GOOGLE, US
34.229.246.120|14618|34.224.0.0/12|US|arin|2016-09-12|AMAZON-AES, US
34.92.205.223|15169|34.92.0.0/14|US|arin|2018-09-28|GOOGLE, US
34.97.29.29|15169|34.97.0.0/17|US|arin|2018-09-28|GOOGLE, US
35.183.249.56|16509|35.182.0.0/15|US|arin|2016-08-09|AMAZON-02, US
35.199.159.226|15169|35.199.128.0/18|US|arin|2017-03-21|GOOGLE, US
35.204.194.255|15169|35.204.0.0/15|US|arin|2017-03-21|GOOGLE, US
35.242.148.200|15169|35.240.0.0/14|US|arin|2017-09-29|GOOGLE, US
37.1.217.35|58061|37.1.216.0/21|GB|ripencc|2011-12-13|SCALAXY-AS, NL
38.65.119.26|55140|38.65.119.0/24|US|arin|1991-04-16|SHO-ME-TECHNOLOGIES, US
42.192.42.126|45090|42.192.0.0/18|CN|apnic|2011-03-04|CNNIC-TENCENT-NET-AP Shenzhen Tencent Computer Systems Company Limited, CN
45.135.4.143|25596|45.135.4.0/22|NL|ripencc|2019-07-29|CAMBRIUM-AS, NL
45.44.244.58|54198|45.44.244.0/22|CA|arin|2015-02-09|VIANET, CA
46.173.50.58|49120|46.173.32.0/19|RU|ripencc|2011-01-28|GORSET-AS, RU
46.233.31.4|42431|46.233.0.0/19|BG|ripencc|2011-02-21|B-NET, BG
46.4.87.133|24940|46.4.0.0/16|DE|ripencc|2010-08-19|HETZNER-AS, DE
47.156.78.125|5650|47.156.0.0/16|US|arin|2015-08-28|FRONTIER-FRTR, US
47.184.28.21|5650|47.184.0.0/14|US|arin|2015-08-28|FRONTIER-FRTR, US
47.253.1.115|45102|47.253.0.0/17|US|arin|2016-04-15|CNNIC-ALIBABA-US-NET-AP Alibaba (US) Technology Co., Ltd., CN
49.146.68.5|9299|49.146.64.0/19|PH|apnic|2010-11-22|IPG-AS-AP Philippine Long Distance Telephone Company, PH
5.189.189.229|51167|5.189.176.0/20|DE|ripencc|2012-08-09|CONTABO, DE
5.9.105.49|24940|5.9.0.0/16|DE|ripencc|2012-04-25|HETZNER-AS, DE
5.9.151.49|24940|5.9.0.0/16|DE|ripencc|2012-04-25|HETZNER-AS, DE
51.15.180.168|12876|51.15.0.0/16|FR|ripencc|1993-09-01|Online SAS, FR
51.161.196.179|16276|51.161.128.0/17|CA|arin|2019-09-03|OVH, FR
54.164.111.200|14618|54.164.0.0/15|US|arin|2014-10-23|AMAZON-AES, US
54.199.164.163|16509|54.199.128.0/17|US|arin|2014-10-23|AMAZON-02, US
54.232.244.249|16509|54.232.192.0/18|US|arin|2012-03-01|AMAZON-02, US
60.48.96.112|4788|60.48.64.0/18|MY|apnic|2004-06-07|TMNET-AS-AP TM Net, Internet Service Provider, MY
62.138.18.158|8972|62.138.18.0/24|DE|ripencc|2000-09-19|GD-EMEA-DC-SXB1, DE
66.198.209.243|33152|66.198.208.0/22|US|arin|2003-09-05|KCEC-ASN, US
67.11.139.67|11427|67.10.0.0/15|US|arin|2001-08-14|TWC-11427-TEXAS, US
69.248.146.7|7922|69.240.0.0/12|US|arin|2004-02-11|COMCAST-7922, US
70.226.119.165|7018|70.226.0.0/15|US|arin|2005-03-22|ATT-INTERNET4, US
71.231.145.228|7922|71.224.0.0/12|US|arin|2005-04-15|COMCAST-7922, US
71.89.209.212|20115|71.89.192.0/19|US|arin|2005-05-19|CHARTER-20115, US
72.250.184.57|33501|72.250.184.0/24|US|arin|2008-06-25|MTDIGITAL, US
72.71.251.161|13672|72.71.192.0/18|US|arin|2005-06-24|FAIRPO-3, US
72.80.140.231|701|72.80.0.0/16|US|arin|2005-06-24|UUNET, US
74.220.255.190|23175|74.220.240.0/20|US|arin|2008-07-24|POGOZONE, US
76.100.17.13|7922|76.96.0.0/11|US|arin|2007-01-02|COMCAST-7922, US
76.30.62.156|7922|76.16.0.0/12|US|arin|2006-06-28|COMCAST-7922, US
77.13.152.231|6805|77.0.0.0/12|DE|ripencc|2006-11-21|TDDE-ASN1, DE
78.157.227.180|42742|78.157.224.0/19|RU|ripencc|2007-08-31|INTERKAMSERVICE-AS, RU
80.100.161.227|3265|80.100.0.0/15|NL|ripencc|2001-07-16|XS4ALL-NL Amsterdam, NL
80.229.149.93|6871|80.229.0.0/16|GB|ripencc|2003-10-17|PLUSNET UK Internet Service Provider, GB
80.79.114.34|34702|80.79.112.0/20|EE|ripencc|2005-03-18|WAVECOM-AS, EE
81.183.235.207|5483|81.182.0.0/15|HU|ripencc|2003-02-05|MAGYAR-TELEKOM-MAIN-AS Magyar Telekom Nyrt., HU
81.21.86.157|39280|81.21.80.0/21|AZ|ripencc|2006-01-13|ULTELNET-AS, AZ
82.65.36.232|12322|82.64.0.0/14|FR|ripencc|2003-04-03|PROXAD, FR
82.72.135.67|33915|82.72.0.0/15|NL|ripencc|2003-07-04|TNF-AS, NL
83.135.88.73|8881|83.135.80.0/20|DE|ripencc|2004-01-28|VERSATEL, DE
85.17.170.30|60781|85.17.0.0/16|NL|ripencc|2005-03-11|LEASEWEB-NL-AMS-01 Netherlands, NL
85.17.25.69|60781|85.17.0.0/16|NL|ripencc|2005-03-11|LEASEWEB-NL-AMS-01 Netherlands, NL
85.196.173.25|8717|85.196.128.0/18|BG|ripencc|2005-01-17|A1, BG
85.9.3.35|5606|85.9.0.0/19|RO|ripencc|2005-02-11|GTS-BACKBONE GTS Telecom, RO
87.243.79.76|202463|87.243.79.0/24|BG|ripencc|2006-07-27|GIGABYTE-LTD, BG
88.198.71.138|24940|88.198.0.0/16|DE|ripencc|2005-12-27|HETZNER-AS, DE
91.209.70.247|43317|91.209.70.0/24|RU|ripencc|2008-10-29|FISHNET-AS, RU
91.53.55.114|3320|91.0.0.0/10|DE|ripencc|2006-07-03|DTAG Internet service provider operations, DE
92.116.169.148|8881|92.116.128.0/18|DE|ripencc|2007-10-25|VERSATEL, DE
93.148.13.226|30722|93.148.0.0/18|IT|ripencc|2008-04-11|VODAFONE-IT-ASN, IT
94.244.97.244|25190|94.244.64.0/18|LT|ripencc|2009-09-09|KIS-AS, LT
95.131.148.78|41275|95.131.144.0/21|RU|ripencc|2009-03-31|LEALTA-AS Moscow, Russia, RU
95.211.212.131|60781|95.211.0.0/16|NL|ripencc|2009-02-05|LEASEWEB-NL-AMS-01 Netherlands, NL
97.120.193.107|209|97.120.0.0/16|US|arin|2007-12-19|CENTURYLINK-US-LEGACY-QWEST, US
