# bitcoin dns seeds and whois results
IP Address|ASN|BGP Prefix|CC|Registry|Allocated|AS Name
103.147.122.113|135932|103.147.122.0/24|VN|apnic|2020-01-10|VNDATA-AS-VN Viet Storage Technology Joint Stock Company, VN
104.192.205.249|21743|104.192.204.0/22|US|arin|2014-09-10|ANL-36, US
109.103.55.145|9050|109.103.0.0/16|RO|ripencc|2009-07-21|RTD Bucharest, Romania, RO
109.201.140.9|43350|109.201.128.0/19|NL|ripencc|2010-02-12|NFORCE, NL
109.236.84.134|49981|109.236.80.0/20|NL|ripencc|2009-12-04|WORLDSTREAM, NL
111.90.145.124|45839|111.90.144.0/21|MY|apnic|2009-06-17|SHINJIRU-MY-AS-AP Shinjiru Technology Sdn Bhd, MY
116.122.157.168|9318|116.122.0.0/16|KR|apnic|2007-05-21|SKB-AS SK Broadband Co Ltd, KR
12.191.193.202|7018|12.128.0.0/9|US|arin|1983-08-23|ATT-INTERNET4, US
124.190.169.152|1221|124.176.0.0/12|AU|apnic|2006-06-20|ASN-TELSTRA Telstra Corporation Ltd, AU
13.113.116.175|16509|13.112.0.0/14|US|arin|2016-08-09|AMAZON-02, US
13.124.29.164|16509|13.124.0.0/16|US|arin|2016-08-09|AMAZON-02, US
13.232.94.246|16509|13.232.0.0/14|US|arin|2019-10-01|AMAZON-02, US
135.181.242.50|24940|135.181.0.0/16|DE|ripencc|1996-04-30|HETZNER-AS, DE
136.243.6.5|24940|136.243.0.0/16|DE|ripencc|2004-04-14|HETZNER-AS, DE
139.162.106.200|63949|139.162.96.0/19|NL|ripencc|1990-03-24|LINODE-AP Linode, LLC, US
144.76.3.71|24940|144.76.0.0/16|DE|ripencc|1990-11-16|HETZNER-AS, DE
147.135.38.125|16276|147.135.0.0/17|US|arin|2017-03-22|OVH, FR
159.100.248.234|61098|159.100.248.0/21|CH|ripencc|1992-03-31|EXOSCALE, CH
162.0.213.26|22612|162.0.213.0/24|US|arin|2020-09-03|NAMECHEAP-NET, US
162.215.212.33|46606|162.214.0.0/15|US|arin|2013-05-22|UNIFIEDLAYER-AS-1, US
165.232.70.243|14061|165.232.64.0/20|US|arin|2019-12-27|DIGITALOCEAN-ASN, US
167.86.100.11|51167|167.86.100.0/23|DE|ripencc|1993-05-14|CONTABO, DE
168.119.171.197|24940|168.119.0.0/16|DE|ripencc|1994-04-05|HETZNER-AS, DE
168.119.176.153|24940|168.119.0.0/16|DE|ripencc|1994-04-05|HETZNER-AS, DE
173.254.204.69|8100|173.254.192.0/18|US|arin|2010-10-19|ASN-QUADRANET-GLOBAL, US
174.115.197.190|812|174.115.192.0/18|CA|arin|2009-03-04|ROGERS-COMMUNICATIONS, CA
174.142.191.132|32613|174.142.0.0/16|CA|arin|2008-12-19|IWEB-AS, CA
178.63.103.8|24940|178.63.0.0/16|DE|ripencc|2010-03-02|HETZNER-AS, DE
178.79.83.93|3212|178.79.64.0/18|SI|ripencc|2010-05-07|TELEMACH Broadband Access & Carrier Services, SI
18.188.40.131|16509|18.188.0.0/16|US|arin|2019-10-07|AMAZON-02, US
184.74.130.170|12271|184.74.128.0/19|US|arin|2010-02-16|TWC-12271-NYC, US
185.148.3.227|203003|185.148.0.0/22|FI|ripencc|2016-04-18|MAGNA-CAPAX, FI
185.184.79.226|49505|185.184.79.0/24|RU|ripencc|2017-01-03|SELECTEL, RU
185.209.162.108|14576|185.209.162.0/24|NL|ripencc|2017-06-22|HOSTING-SOLUTIONS, US
185.239.220.210|61282|185.239.220.0/22|SE|ripencc|2018-12-03|BRAINMILL, SE
185.80.219.133|59702|185.80.216.0/22|SE|ripencc|2014-12-10|JUNET, SE
188.166.250.4|14061|188.166.240.0/20|US|ripencc|2009-06-05|DIGITALOCEAN-ASN, US
188.31.117.84|206067|188.31.112.0/20|GB|ripencc|2009-02-13|H3GUK, GB
192.65.170.15|22581|192.65.170.0/24|VI|arin|2014-11-26|ACE-STX, VI
193.138.154.43|197393|193.138.152.0/22|CZ|ripencc|2010-11-12|ASRUDOLFNET, CZ
193.187.90.56|42675|193.187.88.0/22|SE|ripencc|2018-07-19|OBEHOSTING Obehosting AB, SE
194.14.246.8|50066|194.14.246.0/24|SE|ripencc|1993-12-09|SRSTUBES-AS, SE
2.230.199.35|12874|2.224.0.0/13|IT|ripencc|2010-12-30|FASTWEB, IT
2.49.99.129|5384|2.49.96.0/19|AE|ripencc|2010-05-28|EMIRATES-INTERNET Emirates Internet, AE
202.239.42.192|4694|202.239.32.0/19|JP|apnic|1995-03-29|IDCF IDC Frontier Inc., JP
202.79.167.65|64050|202.79.167.0/24|SG|apnic|2002-03-25|BCPL-SG BGPNET Global ASN, SG
203.193.161.10|7633|203.193.161.0/24|IN|apnic|2001-04-30|SOFTNET-AS-AP Software Technology Parks of India - Bangalore, IN
206.81.96.62|8046|206.81.96.0/21|US|arin|1995-08-16|NAPANET, US
208.110.99.105|25668|208.110.96.0/19|CA|arin|2007-04-11|CIPHERKEY, CA
209.177.86.21|21859|209.177.80.0/20|US|arin|2010-04-05|ZNET, US
209.226.142.140|577|209.226.0.0/16|CA|arin|1998-04-28|BACOM, CA
212.19.14.26|8749|212.19.0.0/19|RU|ripencc|1998-03-23|REDCOM-AS Redcom, Khabarovsk, Russia, RU
213.109.238.156|47702|213.109.236.0/22|UA|ripencc|2009-10-07|DISCOVERY-AS, UA
217.19.216.210|1547|217.19.216.0/24|MD|ripencc|2003-01-24|IDK-NETWORK, MD
217.64.47.138|39324|217.64.32.0/20|FI|ripencc|2010-05-12|MEDIAM-AS, FI
218.212.21.21|55430|218.212.0.0/18|SG|apnic|2003-04-17|STARHUB-NGNBN Starhub Ltd, SG
23.175.0.200|395502|23.175.0.0/24|US|arin|2016-10-26|JCOLO, US
23.224.53.130|40065|23.224.53.0/24|US|arin|2013-09-04|CNSERVERS, US
3.210.177.194|14618|3.208.0.0/12|US|arin|2018-06-25|AMAZON-AES, US
3.83.239.210|14618|3.80.0.0/12|US|arin|2017-12-20|AMAZON-AES, US
3.88.181.72|14618|3.80.0.0/12|US|arin|2017-12-20|AMAZON-AES, US
34.101.247.157|139190|34.101.0.0/16|US|arin|2018-09-28|GOOGLE-AS-AP Google Asia Pacific Pte. Ltd., SG
34.65.191.138|15169|34.64.0.0/14|US|arin|2018-09-28|GOOGLE, US
34.65.37.217|15169|34.64.0.0/14|US|arin|2018-09-28|GOOGLE, US
34.87.53.100|15169|34.84.0.0/14|US|arin|2018-09-28|GOOGLE, US
34.91.188.86|15169|34.88.0.0/14|US|arin|2018-09-28|GOOGLE, US
35.200.208.95|15169|35.200.0.0/14|US|arin|2017-03-21|GOOGLE, US
35.200.231.26|15169|35.200.0.0/14|US|arin|2017-03-21|GOOGLE, US
35.204.137.151|15169|35.204.0.0/15|US|arin|2017-03-21|GOOGLE, US
35.244.9.182|15169|35.244.0.0/14|US|arin|2017-09-29|GOOGLE, US
46.4.22.156|24940|46.4.0.0/16|DE|ripencc|2010-08-19|HETZNER-AS, DE
46.4.88.46|24940|46.4.0.0/16|DE|ripencc|2010-08-19|HETZNER-AS, DE
46.59.13.35|8473|46.59.0.0/17|SE|ripencc|2010-10-19|BAHNHOF http://www.bahnhof.net/, SE
47.102.193.203|37963|47.102.0.0/15|CN|apnic|1989-01-06|CNNIC-ALIBABA-CN-NET-AP Hangzhou Alibaba Advertising Co.,Ltd., CN
5.135.156.68|16276|5.135.0.0/16|FR|ripencc|2012-07-06|OVH, FR
5.188.56.56|49505|5.188.56.0/22|RU|ripencc|2012-08-09|SELECTEL, RU
5.9.118.158|24940|5.9.0.0/16|DE|ripencc|2012-04-25|HETZNER-AS, DE
5.9.151.49|24940|5.9.0.0/16|DE|ripencc|2012-04-25|HETZNER-AS, DE
51.159.36.155|12876|51.158.0.0/15|FR|ripencc|1993-09-01|Online SAS, FR
52.119.120.105|32329|52.119.120.0/21|US|arin|2016-08-04|MONKEYBRAINS, US
52.29.225.255|16509|52.29.0.0/16|US|arin|1991-12-19|AMAZON-02, US
54.176.63.16|16509|54.176.0.0/15|US|arin|2014-10-23|AMAZON-02, US
60.225.197.98|1221|60.224.0.0/13|AU|apnic|2004-07-28|ASN-TELSTRA Telstra Corporation Ltd, AU
61.250.91.26|9848|61.250.64.0/18|KR|apnic|2001-03-21|SEJONGTELECOM-AS-KR Sejong Telecom, KR
67.43.13.173|32244|67.43.0.0/20|US|arin|2004-03-08|LIQUIDWEB, US
68.144.232.248|6327|68.144.232.0/22|CA|arin|2002-06-03|SHAW, CA
70.248.21.48|7018|70.248.0.0/15|US|arin|2004-02-25|ATT-INTERNET4, US
76.14.26.217|11404|76.14.0.0/17|US|arin|2007-05-02|AS-WAVE-1, US
77.242.84.34|41046|77.242.80.0/20|CZ|ripencc|2007-02-27|NEJTV-AS, CZ
78.99.14.151|6855|78.98.0.0/15|SK|ripencc|2007-05-02|SK-TELEKOM Slovak Telekom / T-Mobile CZ, SK
81.10.227.233|12605|81.10.128.0/17|AT|ripencc|2002-04-16|LIWEST-AT Linz, Austria, AT
83.150.56.145|8758|83.150.0.0/18|CH|ripencc|2004-03-16|IWAY, CH
83.163.153.74|3265|83.160.0.0/14|NL|ripencc|2004-03-03|XS4ALL-NL Amsterdam, NL
83.36.71.241|3352|83.36.0.0/16|ES|ripencc|2003-12-02|TELEFONICA_DE_ESPANA, ES
84.40.96.129|43561|84.40.96.0/24|BG|ripencc|2009-10-02|NET1-AS, BG
84.66.140.109|5378|84.64.0.0/13|GB|ripencc|2004-03-15|Vodafone, GB
85.170.233.95|15557|85.168.0.0/14|FR|ripencc|2004-12-21|LDCOMNET, FR
85.212.237.98|12312|85.212.192.0/18|DE|ripencc|2005-02-22|ECOTEL, DE
89.14.37.251|6805|89.14.0.0/16|DE|ripencc|2006-07-19|TDDE-ASN1, DE
89.230.96.42|21021|89.230.0.0/16|PL|ripencc|2006-04-21|MULTIMEDIA-AS Cable DTV Internet Voice Provider in Poland., PL
89.239.99.102|31608|89.239.96.0/19|PL|ripencc|2007-05-25|GAWEX-AS Plac Wolnosci 11 Szczecinek, PL
91.121.210.168|16276|91.121.0.0/16|FR|ripencc|2006-09-20|OVH, FR
91.209.51.131|48239|91.209.51.0/24|UA|ripencc|2008-10-22|ITTV-AS Kiev, Ukraine, UA
91.77.165.170|8359|91.76.0.0/14|RU|ripencc|2006-08-21|MTS, RU
92.194.147.252|20676|92.192.0.0/13|DE|ripencc|2007-10-17|PLUSNET *****************, DE
93.187.182.176|48124|93.187.180.0/22|RU|ripencc|2008-07-22|COMSTAR-REGIONS-TVER, RU
94.130.89.38|24940|94.130.0.0/16|DE|ripencc|2008-06-23|HETZNER-AS, DE
94.244.97.244|25190|94.244.64.0/18|LT|ripencc|2009-09-09|KIS-AS, LT
95.216.36.232|24940|95.216.0.0/16|DE|ripencc|2009-02-24|HETZNER-AS, DE
95.217.114.36|24940|95.217.0.0/16|DE|ripencc|2009-02-24|HETZNER-AS, DE
95.217.195.91|24940|95.217.0.0/16|DE|ripencc|2009-02-24|HETZNER-AS, DE
95.217.41.235|24940|95.217.0.0/16|DE|ripencc|2009-02-24|HETZNER-AS, DE
95.217.96.83|24940|95.217.0.0/16|DE|ripencc|2009-02-24|HETZNER-AS, DE
95.39.235.19|6739|95.39.0.0/16|ES|ripencc|2008-12-15|ONO-AS Cableuropa - ONO, ES
98.11.3.136|11351|98.10.0.0/15|US|arin|2007-01-29|TWC-11351-NORTHEAST, US
99.236.224.223|812|99.236.192.0/18|CA|arin|2007-03-12|ROGERS-COMMUNICATIONS, CA
99.79.196.170|16509|99.79.0.0/16|US|arin|2018-01-10|AMAZON-02, US
