# bitcoin dns seeds and whois results
IP Address|ASN|BGP Prefix|CC|Registry|Allocated|AS Name
103.117.146.210|45753|103.117.146.0/24|HK|apnic|2018-06-27|NETSEC-HK NETSEC, HK
103.214.68.72|138195|103.214.68.0/24|NZ|apnic|2016-04-08|MOACKCOLTD-AS-AP MOACK.Co.LTD, KR
103.224.118.79|56300|103.224.118.0/24|SG|apnic|2014-01-17|MYREPUBLIC-SG MyRepublic Ltd., SG
104.152.209.49|26832|104.152.208.0/22|CA|arin|2014-07-22|RICAWEBSERVICES, CA
104.248.60.35|14061|104.248.48.0/20|US|arin|2018-08-06|DIGITALOCEAN-ASN, US
107.219.74.135|7018|107.208.0.0/12|US|arin|2012-04-25|ATT-INTERNET4, US
108.168.125.21|40788|108.168.0.0/17|CA|arin|2011-12-29|START-, CA
110.140.156.66|1221|110.140.0.0/15|AU|apnic|2009-04-20|ASN-TELSTRA Telstra Corporation Ltd, AU
111.68.15.226|45753|111.68.15.0/24|HK|apnic|2009-06-09|NETSEC-HK NETSEC, HK
118.194.236.12|135377|118.194.236.0/24|HK|apnic|2007-10-19|UCLOUD-HK-AS-AP UCLOUD INFORMATION TECHNOLOGY (HK) LIMITED, HK
119.8.19.14|135026|119.8.19.0/24|SG|apnic|2007-11-23|THINKDREAM-AS-AP ThinkDream Technology Limited, HK
12.244.119.30|7018|12.128.0.0/9|US|arin|1983-08-23|ATT-INTERNET4, US
123.255.48.172|23655|123.255.32.0/19|NZ|apnic|2006-11-30|SNAP-NZ-AS Snap Internet Limited, NZ
13.48.25.119|16509|13.48.0.0/15|US|arin|2020-08-05|AMAZON-02, US
13.49.228.150|16509|13.48.0.0/15|US|arin|2020-08-05|AMAZON-02, US
13.53.40.179|16509|13.53.0.0/16|US|arin|2020-08-05|AMAZON-02, US
130.44.180.149|6079|130.44.128.0/18|US|arin|2019-03-12|RCN-AS, US
136.37.176.126|16591|136.37.176.0/20|US|arin|2015-10-06|GOOGLE-FIBER, US
146.66.167.208|42893|146.66.160.0/19|RU|ripencc|2011-07-12|NWLINK-AS, RU
147.229.13.210|197451|147.229.0.0/17|CZ|ripencc|1993-01-11|VUTBR-AS, CZ
150.140.159.221|5408|150.140.128.0/17|GR|ripencc|1984-01-01|GR-NET http://www.grnet.gr, GR
159.89.18.157|14061|159.89.16.0/20|US|arin|2017-07-07|DIGITALOCEAN-ASN, US
162.253.153.211|62838|162.253.153.0/24|US|arin|2014-02-18|REPRISE-HOSTING, US
169.0.208.43|37611|169.0.0.0/15|ZA|afrinic|2015-07-01|Afrihost, ZA
173.44.60.28|8100|173.44.48.0/20|US|arin|2010-01-11|ASN-QUADRANET-GLOBAL, US
176.99.2.207|197695|176.99.2.0/24|RU|ripencc|2012-06-26|AS-REG, RU
178.159.1.148|42831|178.159.0.0/20|GB|ripencc|2010-08-19|UKSERVERS-AS UK Dedicated Servers, Hosting and Co-Location, GB
178.162.201.179|28753|178.162.192.0/18|DE|ripencc|2010-02-05|LEASEWEB-DE-FRA-10, DE
178.79.83.93|3212|178.79.64.0/18|SI|ripencc|2010-05-07|TELEMACH Broadband Access & Carrier Services, SI
18.139.212.16|16509|18.138.0.0/15|US|arin|2019-10-07|AMAZON-02, US
18.27.79.17|3|18.27.0.0/16|US|arin|1994-01-01|MIT-GATEWAYS, US
181.117.128.4|11664|181.117.128.0/21|AR|lacnic|2013-02-04|Techtel LMDS Comunicaciones Interactivas S.A., AR
181.48.77.26|14080|181.48.64.0/19|CO|lacnic|2011-05-02|Telmex Colombia S.A., CO
185.100.84.171|200651|185.100.84.0/23|SC|ripencc|2015-05-15|FLOKINET, SC
185.180.196.143|14576|185.180.196.0/24|NL|ripencc|2016-12-06|HOSTING-SOLUTIONS, US
185.25.224.231|60785|185.25.224.0/22|CH|ripencc|2013-05-10|ALSENET, CH
185.56.81.8|200699|185.56.81.0/24|SC|ripencc|2014-05-01|Datashield, Inc., SC
185.8.172.118|60631|185.8.172.0/24|IR|ripencc|2012-11-01|PARVASYSTEM, IR
188.214.30.78|51177|188.214.30.0/24|RO|ripencc|2009-05-08|THCPROJECTS, RO
188.32.14.31|42610|188.32.0.0/16|RU|ripencc|2011-09-30|NCNET-AS, RU
190.2.134.140|49981|190.2.128.0/20|CW|lacnic|2006-04-28|WORLDSTREAM, NL
192.248.161.136|20473|192.248.160.0/20|US|ripencc|1992-11-09|AS-CHOOPA, US
192.99.239.86|16276|192.99.0.0/16|CA|arin|2013-06-17|OVH, FR
193.161.86.133|51248|193.161.84.0/22|CZ|ripencc|2010-06-15|HOST-TELECOM, CZ
193.250.187.176|3215|193.250.0.0/16|FR|ripencc|1993-09-01|France Telecom - Orange, FR
194.109.20.68|3265|194.109.0.0/16|NL|ripencc|1996-05-13|XS4ALL-NL Amsterdam, NL
199.15.250.210|29713|199.15.248.0/21|US|arin|2010-07-07|ELIA-60, US
203.132.92.216|38195|203.132.92.0/24|AU|apnic|2007-04-11|SUPERLOOP-AS-AP Superloop, AU
210.105.193.15|4766|210.105.0.0/16|KR|apnic|1997-08-29|KIXS-AS-KR Korea Telecom, KR
213.194.128.84|15704|213.194.128.0/20|ES|ripencc|2000-04-25|AS15704, ES
217.160.14.245|8560|217.160.0.0/16|DE|ripencc|2001-03-07|IONOS-AS This is the joint network for IONOS, Fasthosts, Arsys, 1&1 Mail and Media and 1&1 Telecom. Formerly known as 1&1 Internet SE., DE
217.19.216.210|1547|217.19.216.0/24|MD|ripencc|2003-01-24|IDK-NETWORK, MD
217.64.133.220|60098|217.64.128.0/21|RU|ripencc|2008-10-29|INSITINVEST-AS, RU
217.95.169.221|3320|217.80.0.0/12|DE|ripencc|2000-10-26|DTAG Internet service provider operations, DE
221.217.49.110|4808|221.217.0.0/18|CN|apnic|2003-11-19|CHINA169-BJ China Unicom Beijing Province Network, CN
23.29.117.226|29802|23.29.116.0/23|US|arin|2012-03-16|HVC-AS, US
3.1.24.18|16509|3.0.0.0/15|US|arin|2017-12-20|AMAZON-02, US
31.128.69.137|3326|31.128.68.0/22|UA|ripencc|2011-03-02|DATAGROUP _Datagroup_ PJSC, UA
31.18.112.34|3209|31.16.0.0/14|DE|ripencc|2011-03-24|VODANET International IP-Backbone of Vodafone, DE
34.204.200.38|14618|34.192.0.0/12|US|arin|2016-09-12|AMAZON-AES, US
34.95.165.1|15169|34.92.0.0/14|US|arin|2018-09-28|GOOGLE, US
35.231.190.134|15169|35.228.0.0/14|US|arin|2017-09-29|GOOGLE, US
35.232.112.59|15169|35.232.0.0/14|US|arin|2017-09-29|GOOGLE, US
37.187.5.202|16276|37.187.0.0/16|FR|ripencc|2012-03-20|OVH, FR
45.32.91.80|20473|45.32.64.0/19|US|arin|2015-02-17|AS-CHOOPA, US
46.124.174.57|8412|46.124.0.0/15|AT|ripencc|2010-05-31|TMA Magenta Telekom, AT
46.229.238.187|29405|46.229.224.0/20|SK|ripencc|2011-02-21|VNET-AS, SK
5.188.56.60|49505|5.188.56.0/22|RU|ripencc|2012-08-09|SELECTEL, RU
5.9.144.250|24940|5.9.0.0/16|DE|ripencc|2012-04-25|HETZNER-AS, DE
5.9.161.214|24940|5.9.0.0/16|DE|ripencc|2012-04-25|HETZNER-AS, DE
5.9.48.243|24940|5.9.0.0/16|DE|ripencc|2012-04-25|HETZNER-AS, DE
50.45.128.28|27017|50.45.128.0/17|US|arin|2010-09-24|ZIPLY-FIBER-LEGACY-ASN, US
51.15.21.149|12876|51.15.0.0/17|FR|ripencc|1993-09-01|Online SAS, FR
51.159.38.92|12876|51.158.0.0/15|FR|ripencc|1993-09-01|Online SAS, FR
51.83.180.241|16276|51.83.0.0/16|FR|ripencc|1993-09-01|OVH, FR
51.83.236.21|16276|51.83.0.0/16|FR|ripencc|1993-09-01|OVH, FR
51.91.197.151|16276|51.91.0.0/16|FR|ripencc|1993-09-01|OVH, FR
54.202.255.150|16509|54.202.0.0/15|US|arin|2014-10-23|AMAZON-02, US
54.249.206.111|16509|54.249.128.0/17|US|arin|2012-03-01|AMAZON-02, US
62.133.194.156|28788|62.133.192.0/18|NL|ripencc|2003-02-21|UNILOGICNET-AS, NL
62.143.85.253|3209|62.143.0.0/17|DE|ripencc|2001-08-16|VODANET International IP-Backbone of Vodafone, DE
62.194.33.100|33915|62.194.0.0/16|NL|ripencc|2000-10-10|TNF-AS, NL
62.210.205.10|12876|62.210.0.0/16|FR|ripencc|2000-10-26|Online SAS, FR
62.215.127.73|21050|62.215.120.0/21|KW|ripencc|2000-12-18|FAST-TELCO, KW
62.216.54.174|41710|62.216.54.0/23|UA|ripencc|2008-10-24|MIITLTD-AS MIIT Ltd., UA
62.28.190.194|15525|62.28.0.0/16|PT|ripencc|2006-06-08|MEO-EMPRESAS, PT
62.75.216.136|8972|62.75.216.0/24|DE|ripencc|2001-07-27|GD-EMEA-DC-SXB1, DE
65.78.4.234|6079|65.78.0.0/17|US|arin|2002-08-08|RCN-AS, US
66.85.133.160|20454|66.85.128.0/18|US|arin|2011-08-18|SSASN2, US
69.23.138.139|11427|69.23.128.0/19|US|arin|2003-02-11|TWC-11427-TEXAS, US
70.36.174.212|7065|70.36.168.0/21|US|arin|2009-02-19|SNIC, US
74.118.137.119|20326|74.118.137.0/24|US|arin|2009-10-12|TERASWITCH, US
75.154.127.9|852|75.154.64.0/18|CA|arin|2006-08-01|TELUS Communications, CA
75.56.8.205|7018|75.48.0.0/12|US|arin|2006-02-28|ATT-INTERNET4, US
77.53.53.196|45011|77.53.0.0/16|SE|ripencc|2007-01-24|SE-A3 http://www.a3.se/, SE
78.47.204.219|24940|78.46.0.0/15|DE|ripencc|2007-04-16|HETZNER-AS, DE
79.124.7.253|203380|79.124.7.0/24|BG|ripencc|2007-07-31|DAINTERNATIONALGROUP, GB
79.86.222.102|15557|79.80.0.0/12|FR|ripencc|2007-07-17|LDCOMNET, FR
80.235.34.231|3249|80.235.0.0/17|EE|ripencc|2001-10-11|ESTPAK, EE
81.68.130.11|45090|81.68.128.0/18|CN|apnic|2002-01-11|CNNIC-TENCENT-NET-AP Shenzhen Tencent Computer Systems Company Limited, CN
83.151.238.65|51918|83.151.236.0/22|GB|ripencc|2004-03-30|CERBERUSNETWORKS-AS, GB
84.213.4.115|41164|84.213.0.0/17|NO|ripencc|2005-07-07|GET-NO GET Norway, NO
85.17.131.134|60781|85.17.0.0/16|NL|ripencc|2005-03-11|LEASEWEB-NL-AMS-01 Netherlands, NL
85.240.101.138|3243|85.240.0.0/13|PT|ripencc|2004-01-03|MEO-RESIDENCIAL, PT
88.129.253.94|45011|88.129.0.0/16|SE|ripencc|2005-10-10|SE-A3 http://www.a3.se/, SE
88.99.209.230|24940|88.99.0.0/16|DE|ripencc|2005-08-03|HETZNER-AS, DE
89.103.113.57|16019|89.103.0.0/16|CZ|ripencc|2006-02-24|VODAFONE-CZ-AS, CZ
90.224.117.204|3301|90.224.0.0/12|SE|ripencc|2006-05-30|TELIANET-SWEDEN Telia Company, SE
91.193.237.116|42916|91.193.236.0/23|RU|ripencc|2007-05-09|IT-AS, RU
93.123.180.164|35539|93.123.128.0/17|RU|ripencc|2008-03-07|INFOLINK-T-AS Moscow, Russia, RU
93.176.162.51|15704|93.176.160.0/20|ES|ripencc|2008-03-19|AS15704, ES
93.49.6.140|12874|93.48.0.0/13|IT|ripencc|2008-02-25|FASTWEB, IT
94.102.125.136|29124|94.102.112.0/20|RU|ripencc|2008-09-04|ISKRATELECOM-AS SEVEN-SKY, RU
94.23.248.61|16276|94.23.0.0/16|FR|ripencc|2008-07-15|OVH, FR
95.214.53.154|201814|95.214.52.0/22|PL|ripencc|2018-12-21|PL-SKYTECH-AS, PL
95.217.96.82|24940|95.217.0.0/16|DE|ripencc|2009-02-24|HETZNER-AS, DE
95.69.249.63|20850|95.69.248.0/22|UA|ripencc|2008-11-19|VALORKIEV-AS Kharkov, Ukraine, UA
95.85.254.28|43708|95.85.192.0/18|CZ|ripencc|2008-12-31|METRONET, CZ
