# bitcoin dns seeds and whois results
IP Address|ASN|BGP Prefix|CC|Registry|Allocated|AS Name
100.36.19.244|701|100.36.0.0/16|US|arin|2010-12-28|UUNET, US
101.165.169.151|1221|101.160.0.0/11|AU|apnic|2010-12-23|ASN-TELSTRA Telstra Corporation Ltd, AU
104.62.244.170|7018|104.48.0.0/12|US|arin|2014-05-06|ATT-INTERNET4, US
107.143.246.110|7018|107.128.0.0/12|US|arin|2013-10-23|ATT-INTERNET4, US
108.198.146.105|7018|108.192.0.0/10|US|arin|2011-01-12|ATT-INTERNET4, US
112.120.156.4|4760|112.120.128.0/19|HK|apnic|2009-01-22|HKTIMS-AP HKT Limited, HK
117.15.101.149|4837|117.8.0.0/13|CN|apnic|2007-05-25|CHINA169-BACKBONE CHINA UNICOM China169 Backbone, CN
136.243.36.82|24940|136.243.0.0/16|DE|ripencc|2004-04-14|HETZNER-AS, DE
143.178.64.10|50266|143.178.0.0/17|NL|ripencc|1990-10-01|TMOBILE-THUIS, NL
15.236.60.15|16509|15.236.0.0/15|US|arin|2018-09-27|AMAZON-02, US
156.19.19.90|20115|156.19.0.0/18|US|arin|2017-06-26|CHARTER-20115, US
173.190.145.161|7029|173.184.0.0/13|US|arin|2009-05-06|WINDSTREAM, US
176.212.185.153|56420|176.212.184.0/22|RU|ripencc|2011-09-28|RYAZAN-AS, RU
178.79.83.93|3212|178.79.64.0/18|SI|ripencc|2010-05-07|TELEMACH Broadband Access & Carrier Services, SI
18.163.194.25|16509|18.163.0.0/16|US|arin|2019-10-07|AMAZON-02, US
185.204.197.112|60631|185.204.197.0/24|IR|ripencc|2021-02-25|PARVASYSTEM, IR
185.26.28.173|31415|185.26.28.0/24|RU|ripencc|2013-05-14|SVSCOMM-AS, RU
186.32.212.112|262197|186.32.212.0/23|CR|lacnic|2011-06-24|MILLICOM CABLE COSTA RICA S.A., CR
190.0.236.200|28073|190.0.236.0/24|AR|lacnic|2010-11-09|Cooperativa Electrica Trenque Lauquen, AR
190.194.72.20|7303|190.194.0.0/15|AR|lacnic|2010-05-11|Telecom Argentina S.A., AR
199.247.249.188|18988|199.247.240.0/20|CA|arin|2017-06-07|CITYWEST-CORP, CA
204.14.245.176|18918|204.14.244.0/22|US|arin|2008-12-17|UNOCOMM, US
216.146.251.8|394778|216.146.250.0/23|US|arin|2003-01-17|NEMR, US
34.226.136.24|14618|34.224.0.0/12|US|arin|2016-09-12|AMAZON-AES, US
34.95.17.184|15169|34.92.0.0/14|US|arin|2018-09-28|GOOGLE, US
34.95.4.198|15169|34.92.0.0/14|US|arin|2018-09-28|GOOGLE, US
45.32.91.80|20473|45.32.64.0/19|US|arin|2015-02-17|AS-CHOOPA, US
5.128.87.126|31200|5.128.0.0/16|RU|ripencc|2012-06-29|NTK IPv6 customers, RU
50.35.64.236|20055|50.34.0.0/15|US|arin|2010-09-24|AS-WHOLESAIL, US
66.114.33.90|13831|66.114.32.0/20|US|arin|2003-09-30|POGOZONE-OA, US
69.123.250.241|6128|69.120.0.0/14|US|arin|2004-01-15|CABLE-NET-1, US
69.248.146.7|7922|69.240.0.0/12|US|arin|2004-02-11|COMCAST-7922, US
70.226.119.165|7018|70.226.0.0/15|US|arin|2005-03-22|ATT-INTERNET4, US
74.213.232.237|14978|74.213.232.0/24|US|arin|2008-05-01|CSSBB, US
76.14.50.128|11404|76.14.0.0/17|US|arin|2007-05-02|AS-WAVE-1, US
78.43.208.25|3209|78.43.0.0/16|DE|ripencc|2007-03-23|VODANET International IP-Backbone of Vodafone, DE
85.214.238.3|6724|85.214.0.0/15|DE|ripencc|2005-02-24|STRATO STRATO AG, DE
87.99.37.43|43939|87.99.0.0/18|PL|ripencc|2006-07-21|INTERNETIA_ETTH2-AS Noc-Bialystok, PL
89.133.180.150|21334|89.132.0.0/15|HU|ripencc|2006-01-17|ASN-VODAFONE-, HU
89.163.176.101|24961|89.163.128.0/17|DE|ripencc|2006-02-17|MYLOC-AS IP Backbone of myLoc managed IT AG, DE
89.163.225.8|24961|89.163.128.0/17|DE|ripencc|2006-02-17|MYLOC-AS IP Backbone of myLoc managed IT AG, DE
89.252.30.107|31148|89.252.30.0/24|UA|ripencc|2006-08-01|FREENET_LLC, UA
92.192.179.26|20676|92.192.0.0/13|DE|ripencc|2007-10-17|PLUSNET *****************, DE
93.189.145.169|12555|93.189.144.0/21|RU|ripencc|2008-05-02|IMAQLIQ https://iqdata.center, RU
95.31.12.22|8402|95.30.0.0/15|RU|ripencc|2008-10-10|CORBINA-AS OJSC _Vimpelcom_, RU
96.248.45.100|701|96.248.32.0/19|US|arin|2006-12-29|UUNET, US
