# bitcoin dns seeds and whois results
IP Address|ASN|BGP Prefix|CC|Registry|Allocated|AS Name
104.236.43.172|14061|104.236.0.0/18|US|arin|2014-10-28|DIGITALOCEAN-ASN, US
105.233.37.163|36874|105.233.0.0/17|ZA|afrinic|2012-08-01|Cybersmart, ZA
106.250.188.106|3786|106.240.0.0/12|KR|apnic|2011-03-28|LGDACOM LG DACOM Corporation, KR
107.159.93.103|1403|107.159.80.0/20|CA|arin|2013-12-03|EBOX, CA
108.247.173.170|7018|108.192.0.0/10|US|arin|2011-01-12|ATT-INTERNET4, US
112.124.8.214|37963|112.124.0.0/17|CN|apnic|2009-01-22|CNNIC-ALIBABA-CN-NET-AP Hangzhou Alibaba Advertising Co.,Ltd., CN
121.89.193.102|37963|121.89.128.0/17|CN|apnic|2006-06-29|CNNIC-ALIBABA-CN-NET-AP Hangzhou Alibaba Advertising Co.,Ltd., CN
122.57.183.253|4771|122.57.176.0/21|NZ|apnic|2006-11-01|SPARKNZ Spark New Zealand Trading Ltd., NZ
134.122.100.130|14061|134.122.96.0/20|US|arin|2019-09-06|DIGITALOCEAN-ASN, US
141.136.238.18|13046|141.136.128.0/17|HR|ripencc|2011-06-29|ASN-ISKON HEP, HR
143.110.228.219|14061|143.110.224.0/20|US|arin|2020-01-17|DIGITALOCEAN-ASN, US
15.237.51.173|16509|15.236.0.0/15|US|arin|2018-09-27|AMAZON-02, US
150.140.159.244|5408|150.140.128.0/17|GR|ripencc|1984-01-01|GR-NET http://www.grnet.gr, GR
159.148.38.16|212496|159.148.38.0/24|LV|ripencc|1993-01-19|GOOD, LV
167.172.139.248|14061|167.172.128.0/20|US|ripencc|1993-08-30|DIGITALOCEAN-ASN, US
168.119.129.126|24940|168.119.0.0/16|DE|ripencc|1994-04-05|HETZNER-AS, DE
168.119.153.12|24940|168.119.0.0/16|DE|ripencc|1994-04-05|HETZNER-AS, DE
173.164.210.49|7922|173.160.0.0/13|US|arin|2009-04-10|COMCAST-7922, US
173.176.115.220|5769|173.176.64.0/18|CA|arin|2009-04-27|VIDEOTRON, CA
174.80.197.141|20115|174.80.192.0/18|US|arin|2009-02-23|CHARTER-20115, US
178.78.243.147|33885|178.78.192.0/18|SE|ripencc|2010-04-28|OWNIT Katarinavagen 15, SE
178.79.83.93|3212|178.79.64.0/18|SI|ripencc|2010-05-07|TELEMACH Broadband Access & Carrier Services, SI
18.132.48.243|16509|18.132.0.0/14|US|arin|2019-10-07|AMAZON-02, US
18.139.212.16|16509|18.138.0.0/15|US|arin|2019-10-07|AMAZON-02, US
18.163.113.110|16509|18.163.0.0/16|US|arin|2019-10-07|AMAZON-02, US
18.163.2.153|16509|18.163.0.0/16|US|arin|2019-10-07|AMAZON-02, US
180.59.248.202|4713|180.0.0.0/10|JP|apnic|2009-07-06|OCN NTT Communications Corporation, JP
185.143.45.39|55293|185.143.44.0/22|US|ripencc|2016-03-11|A2HOSTING, US
185.186.208.163|206428|185.186.208.0/22|BY|ripencc|2017-01-20|MEGADATA-AS, BY
185.19.29.110|61098|185.19.28.0/22|CH|ripencc|2013-02-19|EXOSCALE, CH
185.233.148.146|60118|185.233.148.0/22|RO|ripencc|2017-11-24|CYBERSMARTSOLUTIONS-AS, RO
185.251.161.54|24904|185.251.160.0/22|FR|ripencc|2018-03-23|KWAOO K-NET SARL, FR
185.48.43.53|200933|185.48.40.0/22|HU|ripencc|2014-02-18|TERANET-HU-AS, HU
185.88.153.84|42043|185.88.153.0/24|IR|ripencc|2015-02-17|BERTINATECHNOLOGYCOMPANY, IR
188.244.4.78|39709|188.244.0.0/20|RU|ripencc|2009-07-07|EXTREME-AS, RU
190.215.121.121|18822|190.215.121.0/24|CL|lacnic|2010-08-18|Manquehuenet, CL
192.3.11.24|36352|192.3.0.0/20|US|arin|2013-06-07|AS-COLOCROSSING, US
193.234.50.227|200134|193.234.48.0/22|SE|ripencc|1993-09-01|IPCONNECT, FI
193.42.110.30|60144|193.42.110.0/23|RU|ripencc|2018-10-23|THREE-W-INFRA-AS -- TRANSIT --, NL
195.202.169.149|8339|195.202.160.0/19|AT|ripencc|1998-02-20|KABSI-AS, AT
198.245.61.137|16276|198.245.48.0/20|CA|arin|2012-04-16|OVH, FR
199.164.166.140|393507|199.164.166.0/24|US|arin|1994-03-15|GUSHISYS, US
201.191.6.103|11830|201.191.4.0/22|CR|lacnic|2008-09-15|Instituto Costarricense de Electricidad y Telecom., CR
201.26.70.70|27699|201.26.0.0/17|BR|lacnic|2004-12-16|TELEFONICA BRASIL S.A, BR
203.28.246.107|398088|203.28.246.0/24|US|arin|2019-11-25|VANWATECH, US
205.206.227.110|852|205.206.0.0/16|CA|arin|1995-04-08|TELUS Communications, CA
207.190.80.147|11796|207.190.64.0/18|US|arin|2000-09-22|AIRSTREAMCOMM-NET, US
213.174.156.71|39572|213.174.128.0/19|NL|ripencc|2008-01-17|ADVANCEDHOSTERS-AS, NL
213.89.176.153|39651|213.89.0.0/16|SE|ripencc|2000-12-27|TELE2-FIXED-SWEDEN, SE
217.145.94.94|20665|217.145.80.0/20|BG|ripencc|2004-04-06|VARNANET-AS, BG
217.26.32.10|197312|217.26.32.0/24|CH|ripencc|2000-10-16|BSOURCE-AS, CH
24.124.98.230|11232|24.124.98.0/24|US|arin|1996-07-31|MIDCO-NET, US
24.88.201.149|11426|24.88.0.0/16|US|arin|2000-06-19|TWC-11426-CAROLINAS, US
3.12.120.222|16509|3.12.0.0/16|US|arin|2017-12-20|AMAZON-02, US
31.31.116.242|6876|31.31.96.0/19|UA|ripencc|2011-03-18|TENET-AS, UA
34.101.105.12|139190|34.101.0.0/16|US|arin|2018-09-28|GOOGLE-AS-AP Google Asia Pacific Pte. Ltd., SG
34.205.224.226|14618|34.192.0.0/12|US|arin|2016-09-12|AMAZON-AES, US
34.84.22.94|15169|34.84.0.0/14|US|arin|2018-09-28|GOOGLE, US
34.85.99.179|15169|34.84.0.0/14|US|arin|2018-09-28|GOOGLE, US
35.199.29.207|15169|35.199.0.0/17|US|arin|2017-03-21|GOOGLE, US
35.203.55.159|15169|35.200.0.0/14|US|arin|2017-03-21|GOOGLE, US
37.187.117.135|16276|37.187.0.0/16|FR|ripencc|2012-03-20|OVH, FR
46.141.95.133|49524|46.141.0.0/17|IT|ripencc|2010-11-22|WOLNEXT, IT
46.166.148.160|43350|46.166.144.0/21|NL|ripencc|2010-12-16|NFORCE, NL
47.243.60.102|45102|47.243.0.0/16|US|arin|2016-04-15|CNNIC-ALIBABA-US-NET-AP Alibaba (US) Technology Co., Ltd., CN
47.88.76.141|45102|47.88.76.0/23|US|arin|2015-05-18|CNNIC-ALIBABA-US-NET-AP Alibaba (US) Technology Co., Ltd., CN
5.200.47.22|48096|5.200.47.0/24|RU|ripencc|2012-08-30|ITGRAD, RU
51.15.171.192|12876|51.15.0.0/16|FR|ripencc|1993-09-01|Online SAS, FR
51.15.180.168|12876|51.15.0.0/16|FR|ripencc|1993-09-01|Online SAS, FR
51.222.94.29|16276|51.222.0.0/16|CA|arin|2020-03-31|OVH, FR
51.77.117.99|16276|51.77.0.0/16|FR|ripencc|1993-09-01|OVH, FR
51.79.82.75|16276|51.79.0.0/17|CA|arin|2019-01-10|OVH, FR
54.247.100.248|16509|54.247.0.0/17|US|arin|2012-03-01|AMAZON-02, US
58.119.175.215|4847|58.118.0.0/15|CN|apnic|2005-05-11|CNIX-AP China Networks Inter-Exchange, CN
62.75.171.233|8972|62.75.171.0/24|DE|ripencc|2001-07-27|GD-EMEA-DC-SXB1, DE
63.249.96.19|11994|63.249.96.0/21|US|arin|2000-12-15|CZIO-ASN, US
64.225.74.47|14061|64.225.64.0/20|US|arin|2019-08-14|DIGITALOCEAN-ASN, US
65.21.74.218|24940|65.21.0.0/16|DE|ripencc|2001-09-26|HETZNER-AS, DE
66.240.237.155|10439|66.240.192.0/18|US|arin|2003-06-17|CARINET, US
66.66.249.98|11351|66.66.0.0/15|US|arin|2001-01-17|TWC-11351-NORTHEAST, US
68.199.157.183|6128|68.196.0.0/14|US|arin|2003-01-29|CABLE-NET-1, US
71.105.44.45|701|71.105.0.0/16|US|arin|2005-01-18|UUNET, US
71.191.207.62|701|71.191.0.0/16|US|arin|2005-06-01|UUNET, US
71.231.145.228|7922|71.224.0.0/12|US|arin|2005-04-15|COMCAST-7922, US
71.87.253.7|20115|71.87.240.0/20|US|arin|2005-05-19|CHARTER-20115, US
72.184.216.192|33363|72.184.0.0/14|US|arin|2005-11-21|BHN-33363, US
73.19.23.176|7922|73.0.0.0/8|US|arin|2005-04-19|COMCAST-7922, US
74.111.114.160|701|74.111.96.0/19|US|arin|2009-01-26|UUNET, US
76.11.60.155|32233|76.11.48.0/20|CA|arin|2007-02-23|PERSONA, CA
77.247.178.130|43350|77.247.176.0/21|NL|ripencc|2007-06-26|NFORCE, NL
8.209.108.240|45102|8.209.96.0/19|SG|apnic|1992-12-01|CNNIC-ALIBABA-US-NET-AP Alibaba (US) Technology Co., Ltd., CN
8.210.214.87|45102|8.210.128.0/17|SG|apnic|1992-12-01|CNNIC-ALIBABA-US-NET-AP Alibaba (US) Technology Co., Ltd., CN
81.0.198.25|21430|81.0.198.0/24|CZ|ripencc|2001-12-14|WIA-AS, CZ
81.236.222.167|3301|81.224.0.0/12|SE|ripencc|2002-10-04|TELIANET-SWEDEN Telia Company, SE
82.116.50.101|30936|82.116.32.0/19|RU|ripencc|2004-01-20|RENET-COM-AS RENET COM Autonomous System, RU
82.181.91.236|16086|82.181.0.0/16|FI|ripencc|2003-10-10|DNA, FI
82.71.47.216|13037|82.68.0.0/14|GB|ripencc|2003-04-28|ZEN-AS Zen Internet - UK, GB
83.148.241.203|39699|83.148.192.0/18|FI|ripencc|2004-03-09|SSPOY-AS, FI
84.17.54.71|60068|84.17.54.0/23|GB|ripencc|2004-07-23|CDN77 (^_^)/, GB
84.98.9.151|15557|84.96.0.0/13|FR|ripencc|2004-04-01|LDCOMNET, FR
87.123.232.30|8881|87.123.224.0/20|DE|ripencc|2005-07-27|VERSATEL, DE
87.244.227.100|31117|87.244.192.0/18|SK|ripencc|2005-08-19|ENERGOTEL-AS, SK
88.129.253.94|45011|88.129.0.0/16|SE|ripencc|2005-10-10|SE-A3 http://www.a3.se/, SE
88.198.37.38|24940|88.198.0.0/16|DE|ripencc|2005-12-27|HETZNER-AS, DE
88.82.181.44|39178|88.82.180.0/22|RU|ripencc|2005-12-22|OPTILINK-AS, RU
89.239.99.102|31608|89.239.96.0/19|PL|ripencc|2007-05-25|GAWEX-AS Plac Wolnosci 11 Szczecinek, PL
89.245.69.103|8881|89.245.64.0/20|DE|ripencc|2006-05-04|VERSATEL, DE
91.121.154.73|16276|91.121.0.0/16|FR|ripencc|2006-09-20|OVH, FR
91.126.188.32|35699|91.126.188.0/23|ES|ripencc|2006-10-24|ADAMOEU-AS Adamo Telecom Iberia S.A., ES
91.65.109.44|3209|91.64.0.0/14|DE|ripencc|2006-07-10|VODANET International IP-Backbone of Vodafone, DE
94.176.233.124|62282|94.176.232.0/21|LT|ripencc|2008-08-14|RACKRAY UAB Rakrejus, LT
95.110.133.223|31034|95.110.128.0/21|IT|ripencc|2008-12-18|ARUBA-ASN, IT
95.216.193.24|24940|95.216.0.0/16|DE|ripencc|2009-02-24|HETZNER-AS, DE
95.217.38.60|24940|95.217.0.0/16|DE|ripencc|2009-02-24|HETZNER-AS, DE
95.69.249.63|20850|95.69.248.0/22|UA|ripencc|2008-11-19|VALORKIEV-AS Kharkov, Ukraine, UA
97.84.96.62|20115|97.84.64.0/18|US|arin|2007-03-21|CHARTER-20115, US
98.7.52.103|12271|98.7.0.0/17|US|arin|2007-01-29|TWC-12271-NYC, US
99.88.47.34|7018|99.88.0.0/13|US|arin|2008-02-25|ATT-INTERNET4, US
