# bitcoin dns seeds and whois results
IP Address|ASN|BGP Prefix|CC|Registry|Allocated|AS Name
101.100.139.113|133579|101.100.139.0/24|NZ|apnic|2010-12-22|MYREPNZ-AS-AP MYREPUBLIC LIMITED, NZ
108.198.104.10|7018|108.192.0.0/10|US|arin|2011-01-12|ATT-INTERNET4, US
108.4.213.39|701|108.4.192.0/18|US|arin|2009-06-05|UUNET, US
111.108.18.89|2516|111.108.0.0/16|JP|apnic|2009-06-12|KDDI KDDI CORPORATION, JP
121.147.84.120|4766|121.144.0.0/13|KR|apnic|2006-04-07|KIXS-AS-KR Korea Telecom, KR
121.78.223.195|9286|121.78.192.0/18|KR|apnic|2006-06-20|KINXIDC-AS-KR KINX, KR
135.180.44.61|46375|135.180.0.0/16|US|arin|2013-05-10|AS-SONICTELECOM, US
139.180.67.129|55850|139.180.64.0/18|NZ|apnic|1993-04-08|TRUSTPOWERLTD-AS-AP TrustPower Ltd, NZ
142.202.24.135|396872|142.202.24.0/24|US|arin|2019-12-18|ADVANCED-INTERNET, US
144.168.230.66|55286|144.168.224.0/21|CA|arin|2015-09-02|SERVER-MANIA, CA
148.66.50.234|45753|148.66.50.0/24|HK|apnic|1991-04-11|NETSEC-HK NETSEC, HK
15.188.83.52|16509|15.188.0.0/16|US|arin|2021-01-28|AMAZON-02, US
151.106.34.139|34088|151.106.32.0/20|DE|ripencc|1991-05-30|GDY-FRANCE, DE
158.69.72.5|16276|158.69.0.0/16|CA|arin|2015-06-15|OVH, FR
159.89.108.149|14061|159.89.96.0/20|US|arin|2017-07-07|DIGITALOCEAN-ASN, US
161.53.201.185|2108|161.53.0.0/16|HR|ripencc|1993-09-01|CARNET-AS J.Marohnica 5, 10000 Zagreb, HR
161.97.109.229|51167|161.97.108.0/23|DE|ripencc|1992-06-23|CONTABO, DE
162.253.153.211|62838|162.253.153.0/24|US|arin|2014-02-18|REPRISE-HOSTING, US
162.62.26.218|132203|162.62.26.0/23|SG|apnic|1992-08-11|TENCENT-NET-AP-CN Tencent Building, Kejizhongyi Avenue, CN
165.227.84.200|14061|165.227.80.0/20|US|arin|2016-10-06|DIGITALOCEAN-ASN, US
173.208.195.202|32097|173.208.128.0/17|US|arin|2009-12-17|WII, US
173.212.247.235|51167|173.212.240.0/21|DE|ripencc|2009-10-26|CONTABO, DE
173.249.5.183|51167|173.249.4.0/23|DE|ripencc|2010-05-26|CONTABO, DE
176.191.182.3|5410|176.128.0.0/10|FR|ripencc|2011-07-06|BOUYGTEL-ISP, FR
178.219.89.121|51069|178.219.80.0/20|UA|ripencc|2010-05-25|ASDNEPRONET, UA
178.238.227.217|51167|178.238.226.0/23|DE|ripencc|2010-07-28|CONTABO, DE
178.79.83.93|3212|178.79.64.0/18|SI|ripencc|2010-05-07|TELEMACH Broadband Access & Carrier Services, SI
185.108.244.41|21232|185.108.244.0/22|CH|ripencc|2015-07-14|GGAMAUR, CH
185.148.3.227|203003|185.148.0.0/22|FI|ripencc|2016-04-18|MAGNA-CAPAX, FI
185.16.238.104|199419|185.16.238.0/24|TR|ripencc|2013-01-25|LIMONHOST, TR
185.180.220.12|49981|185.180.220.0/22|NL|ripencc|2016-12-07|WORLDSTREAM, NL
185.210.224.102|49432|185.210.224.0/24|AT|ripencc|2017-06-29|SCHALLERT-AS schallert.com e.U., AT
195.134.168.164|39647|195.134.168.0/21|NL|ripencc|2012-03-07|REDHOSTING-AS, NL
198.1.231.6|30236|198.1.224.0/21|CA|arin|2013-04-17|CRONOMAGIC-1, CA
199.164.166.140|393507|199.164.166.0/24|US|arin|1994-03-15|GUSHISYS, US
2.200.165.2|3209|2.200.0.0/14|DE|ripencc|2010-11-18|VODANET International IP-Backbone of Vodafone, DE
2.4.129.46|3215|2.4.0.0/16|FR|ripencc|2010-07-12|France Telecom - Orange, FR
2.49.99.129|5384|2.49.96.0/19|AE|ripencc|2010-05-28|EMIRATES-INTERNET Emirates Internet, AE
203.151.166.124|4618|203.151.160.0/19|TH|apnic|1997-07-01|INET-TH-AS Internet Thailand Company Limited, TH
206.189.63.80|14061|206.189.48.0/20|US|arin|1995-11-15|DIGITALOCEAN-ASN, US
212.83.35.11|47447|212.83.32.0/19|DE|ripencc|2008-06-24|TTM, DE
213.93.145.183|33915|213.93.128.0/17|NL|ripencc|2000-05-09|TNF-AS, NL
23.114.194.58|7018|23.112.0.0/12|US|arin|2013-08-09|ATT-INTERNET4, US
24.141.166.152|7992|24.141.0.0/16|CA|arin|1999-05-03|COGECOWAVE, CA
24.222.43.8|11260|24.222.32.0/20|CA|arin|1998-05-22|EASTLINK-HSI, CA
3.104.224.80|16509|3.104.0.0/14|US|arin|2017-12-20|AMAZON-02, US
3.15.37.142|16509|3.14.0.0/15|US|arin|2017-12-20|AMAZON-02, US
3.236.255.16|14618|3.224.0.0/12|US|arin|2018-06-25|AMAZON-AES, US
3.35.166.20|16509|3.34.0.0/15|US|arin|2017-12-20|AMAZON-02, US
3.96.170.113|16509|3.96.0.0/15|US|arin|2017-12-20|AMAZON-02, US
31.132.17.56|57294|31.132.16.0/20|CZ|ripencc|2011-06-16|INTERNET_EXPERT_, CZ
31.17.70.80|3209|31.16.0.0/14|DE|ripencc|2011-03-24|VODANET International IP-Backbone of Vodafone, DE
31.42.184.85|30860|31.42.184.0/23|UA|ripencc|2011-02-23|YURTEH-AS, UA
34.105.19.97|15169|34.104.0.0/14|US|arin|2018-09-28|GOOGLE, US
34.201.101.33|14618|34.192.0.0/12|US|arin|2016-09-12|AMAZON-AES, US
34.70.196.248|15169|34.68.0.0/14|US|arin|2018-09-28|GOOGLE, US
34.94.255.160|15169|34.92.0.0/14|US|arin|2018-09-28|GOOGLE, US
35.204.137.151|15169|35.204.0.0/15|US|arin|2017-03-21|GOOGLE, US
35.209.182.232|15169|35.208.0.0/15|US|arin|2017-09-29|GOOGLE, US
35.228.85.207|15169|35.228.0.0/14|US|arin|2017-09-29|GOOGLE, US
35.236.40.20|15169|35.236.0.0/14|US|arin|2017-09-29|GOOGLE, US
38.242.18.254|64249|38.242.18.0/24|US|arin|1991-04-16|ENDOFFICE, US
38.87.54.163|174|38.0.0.0/8|US|arin|1991-04-16|COGENT-174, US
45.19.203.67|7018|45.16.0.0/12|US|arin|2014-12-11|ATT-INTERNET4, US
46.136.128.70|12430|46.136.0.0/16|ES|ripencc|2010-11-16|VODAFONE_ES, ES
46.173.211.21|47196|46.173.211.0/24|RU|ripencc|2011-02-07|GARANT-PARK-INTERNET, RU
46.173.50.58|49120|46.173.32.0/19|RU|ripencc|2011-01-28|GORSET-AS, RU
46.20.2.222|43260|46.20.2.0/24|TR|ripencc|2010-07-22|AS43260, TR
47.117.139.164|37963|47.117.128.0/17|CN|apnic|1989-01-06|CNNIC-ALIBABA-CN-NET-AP Hangzhou Alibaba Advertising Co.,Ltd., CN
47.160.45.112|5650|47.160.0.0/18|US|arin|2015-08-28|FRONTIER-FRTR, US
47.26.14.216|20115|47.26.0.0/17|US|arin|2017-11-27|CHARTER-20115, US
5.15.41.233|8708|5.12.0.0/14|RO|ripencc|2012-04-27|RCS-RDS 73-75 Dr. Staicovici, RO
5.188.56.51|49505|5.188.56.0/22|RU|ripencc|2012-08-09|SELECTEL, RU
5.189.150.28|51167|5.189.144.0/20|DE|ripencc|2012-08-09|CONTABO, DE
5.39.74.166|16276|5.39.0.0/17|FR|ripencc|2012-05-15|OVH, FR
5.9.16.76|24940|5.9.0.0/16|DE|ripencc|2012-04-25|HETZNER-AS, DE
5.9.5.171|24940|5.9.0.0/16|DE|ripencc|2012-04-25|HETZNER-AS, DE
5.9.8.28|24940|5.9.0.0/16|DE|ripencc|2012-04-25|HETZNER-AS, DE
50.2.13.164|62904|50.2.12.0/23|US|arin|2010-06-25|EONIX-COMMUNICATIONS-ASBLOCK-62904, US
51.174.206.76|29695|51.174.0.0/15|NO|ripencc|1993-09-01|ALTIBOX_AS Norway, NO
51.255.149.249|16276|51.254.0.0/15|FR|ripencc|1993-09-01|OVH, FR
51.83.67.9|16276|51.83.0.0/16|FR|ripencc|1993-09-01|OVH, FR
52.64.105.31|16509|52.64.0.0/17|US|arin|1991-12-19|AMAZON-02, US
58.119.175.215|4847|58.118.0.0/15|CN|apnic|2005-05-11|CNIX-AP China Networks Inter-Exchange, CN
64.187.175.226|54858|64.187.160.0/20|US|arin|2012-12-06|AS-SBI, US
68.183.75.251|14061|68.183.64.0/20|US|arin|2018-09-18|DIGITALOCEAN-ASN, US
69.59.19.22|397444|69.59.19.0/24|US|arin|2019-04-18|AS-OKI, US
69.64.225.2|13409|69.64.224.0/20|US|arin|2003-08-04|PDX, US
72.48.253.168|7459|72.48.0.0/16|US|arin|2005-05-03|GRANDECOM-AS1, US
74.79.123.203|11351|74.76.0.0/14|US|arin|2006-03-27|TWC-11351-NORTHEAST, US
77.166.83.167|1136|77.160.0.0/13|NL|ripencc|2006-11-02|KPN KPN National, NL
78.20.192.90|6848|78.20.0.0/15|BE|ripencc|2007-05-14|TELENET-AS, BE
78.63.28.146|8764|78.63.28.0/22|LT|ripencc|2007-03-21|TELIA-LIETUVA, LT
8.209.78.101|45102|8.209.64.0/19|SG|apnic|1992-12-01|CNNIC-ALIBABA-US-NET-AP Alibaba (US) Technology Co., Ltd., CN
8.210.194.45|45102|8.210.128.0/17|SG|apnic|1992-12-01|CNNIC-ALIBABA-US-NET-AP Alibaba (US) Technology Co., Ltd., CN
80.111.226.61|6830|80.111.128.0/17|NL|ripencc|2001-07-19|LIBERTYGLOBAL Liberty Global (formerly UPC Broadband Holding, aka AORTA), NL
80.235.34.231|3249|80.235.0.0/17|EE|ripencc|2001-10-11|ESTPAK, EE
80.242.39.76|44234|80.242.36.0/22|SK|ripencc|2007-12-10|GAYA-AS P.O.Hviezdoslava 23B, SK
81.0.198.25|21430|81.0.198.0/24|CZ|ripencc|2001-12-14|WIA-AS, CZ
81.236.246.232|3301|81.224.0.0/12|SE|ripencc|2002-10-04|TELIANET-SWEDEN Telia Company, SE
82.148.25.98|49505|82.148.24.0/22|RU|ripencc|2003-07-10|SELECTEL, RU
82.197.215.125|25596|82.197.192.0/19|NL|ripencc|2003-11-11|CAMBRIUM-AS, NL
82.64.131.93|12322|82.64.0.0/14|FR|ripencc|2003-04-03|PROXAD, FR
84.115.141.72|6830|84.114.0.0/15|AT|ripencc|2004-04-07|LIBERTYGLOBAL Liberty Global (formerly UPC Broadband Holding, aka AORTA), NL
84.17.54.71|60068|84.17.54.0/23|GB|ripencc|2004-07-23|CDN77 (^_^)/, GB
84.213.92.152|41164|84.213.0.0/17|NO|ripencc|2005-07-07|GET-NO GET Norway, NO
85.220.190.246|25394|85.220.128.0/17|DE|ripencc|2005-02-07|MK-NETZDIENSTE-AS, DE
87.244.227.100|31117|87.244.192.0/18|SK|ripencc|2005-08-19|ENERGOTEL-AS, SK
87.79.94.221|8422|87.78.0.0/15|DE|ripencc|2005-05-31|NETCOLOGNE, DE
91.204.99.178|15774|91.204.96.0/22|RU|ripencc|2008-06-09|TTK-RTL Retail, RU
91.3.72.15|3320|91.0.0.0/10|DE|ripencc|2006-07-03|DTAG Internet service provider operations, DE
91.92.144.166|44901|91.92.144.0/24|CY|ripencc|2006-08-15|BELCLOUD, BG
94.142.235.140|48926|94.142.232.0/21|CZ|ripencc|2009-01-14|PE3NY-AS, CZ
94.16.175.196|15600|94.16.128.0/17|CH|ripencc|2008-06-05|FINECOM Quickline AG, CH
94.176.238.212|62282|94.176.232.0/21|LT|ripencc|2008-08-14|RACKRAY UAB Rakrejus, LT
94.23.214.15|16276|94.23.0.0/16|FR|ripencc|2008-07-15|OVH, FR
96.43.141.234|19969|96.43.128.0/20|US|arin|2009-10-16|JOESDATACENTER, US
96.48.243.148|6327|96.48.240.0/22|CA|arin|2008-01-07|SHAW, CA
99.192.223.18|27589|99.192.128.0/17|US|arin|2009-04-22|MOJOHOST, US
