# bitcoin dns seeds and whois results
IP Address|ASN|BGP Prefix|CC|Registry|Allocated|AS Name
103.137.94.237|136334|103.137.94.0/24|IN|apnic|2019-03-25|VNPL-AS Vortex Netsol Private Limited, IN
103.22.144.67|45447|103.22.144.0/22|AU|apnic|2011-06-16|YLESS4U-AS-AP YLess4U Regional Broadband, AU
104.197.202.178|15169|104.197.192.0/19|US|arin|2014-08-27|GOOGLE, US
109.195.103.190|51604|109.195.96.0/20|RU|ripencc|2009-10-27|EKAT-AS, RU
109.201.140.9|43350|109.201.128.0/19|NL|ripencc|2010-02-12|NFORCE, NL
122.51.56.113|45090|122.51.0.0/18|CN|apnic|2006-07-19|CNNIC-TENCENT-NET-AP Shenzhen Tencent Computer Systems Company Limited, CN
123.129.224.30|4837|123.128.0.0/13|CN|apnic|2007-02-15|CHINA169-BACKBONE CHINA UNICOM China169 Backbone, CN
124.156.180.189|132203|124.156.180.0/22|SG|apnic|2006-03-17|TENCENT-NET-AP-CN Tencent Building, Kejizhongyi Avenue, CN
13.236.97.169|16509|13.236.0.0/14|US|arin|2019-10-01|AMAZON-02, US
130.51.200.132|23423|130.51.200.0/24|US|arin|2020-01-24|HIGH-SPEED-UTAH, US
135.181.178.210|24940|135.181.0.0/16|DE|ripencc|1996-04-30|HETZNER-AS, DE
138.236.128.33|17234|138.236.0.0/16|US|arin|1990-06-07|GAC, US
144.76.92.36|24940|144.76.0.0/16|DE|ripencc|1990-11-16|HETZNER-AS, DE
15.161.89.19|16509|15.161.0.0/16|US|arin|2019-12-26|AMAZON-02, US
155.133.2.5|61056|155.133.2.0/24|PL|ripencc|1991-11-07|ASN-MULTI-NET-EU, PL
157.90.35.190|24940|157.90.0.0/16|DE|ripencc|1996-12-16|HETZNER-AS, DE
161.35.8.161|14061|161.35.0.0/20|US|arin|2019-07-30|DIGITALOCEAN-ASN, US
161.53.201.185|2108|161.53.0.0/16|HR|ripencc|1993-09-01|CARNET-AS J.Marohnica 5, 10000 Zagreb, HR
161.97.129.105|51167|161.97.128.0/19|DE|ripencc|1992-06-23|CONTABO, DE
162.0.210.38|22612|162.0.210.0/24|US|arin|2020-09-03|NAMECHEAP-NET, US
172.105.51.235|63949|172.105.32.0/19|US|arin|2015-06-19|LINODE-AP Linode, LLC, US
173.31.161.228|30036|173.31.160.0/21|US|arin|2008-05-19|MEDIACOM-ENTERPRISE-BUSINESS, US
176.21.161.80|3292|176.20.0.0/14|DK|ripencc|2011-05-19|TDC TDC A/S, DK
176.74.136.237|35613|176.74.128.0/19|CZ|ripencc|2011-06-15|NETDATACOMM, CZ
176.99.2.207|197695|176.99.2.0/24|RU|ripencc|2012-06-26|AS-REG, RU
178.164.169.167|20845|178.164.128.0/17|HU|ripencc|2010-02-16|DIGICABLE, HU
178.63.78.77|24940|178.63.0.0/16|DE|ripencc|2010-03-02|HETZNER-AS, DE
178.79.83.93|3212|178.79.64.0/18|SI|ripencc|2010-05-07|TELEMACH Broadband Access & Carrier Services, SI
185.143.45.39|55293|185.143.44.0/22|US|ripencc|2016-03-11|A2HOSTING, US
185.193.227.36|21232|185.193.224.0/22|CH|ripencc|2017-03-10|GGAMAUR, CH
185.233.148.146|60118|185.233.148.0/22|RO|ripencc|2017-11-24|CYBERSMARTSOLUTIONS-AS, RO
185.254.97.164|60548|185.254.96.0/22|DE|ripencc|2018-04-10|AVORO Avoro, DE
189.39.6.82|16735|189.39.0.0/18|BR|lacnic|2007-05-18|ALGAR TELECOM S/A, BR
192.227.80.83|13886|192.227.80.0/24|US|arin|2017-01-30|CLOUD-SOUTH, US
193.111.156.2|24881|193.111.156.0/22|UA|ripencc|2002-04-25|INTERPHONE-AS, UA
193.138.154.43|197393|193.138.152.0/22|CZ|ripencc|2010-11-12|ASRUDOLFNET, CZ
194.11.225.53|198647|194.11.225.0/24|UA|ripencc|2012-04-02|SCSM, UA
195.201.57.164|24940|195.201.0.0/16|DE|ripencc|1997-09-22|HETZNER-AS, DE
195.91.239.8|8331|195.91.128.0/17|RU|ripencc|1997-08-01|RINET-AS Cronyx Plus Ltd, RU
202.184.3.8|9930|202.184.0.0/18|MY|apnic|1995-10-09|TTNET-MY TIME dotCom Berhad No. 14, Jalan Majistret U1/26 Hicom Glenmarie Industrial Park 40150 Shah Alam Selangor, Malaysia, MY
202.73.14.205|55720|202.73.14.0/24|MY|apnic|2004-12-03|GIGABIT-MY Gigabit Hosting Sdn Bhd, MY
206.198.196.82|19693|206.198.196.0/23|US|arin|2018-01-12|CENTRILOGIC-ASN, US
209.131.236.105|393552|209.131.236.0/23|US|arin|2015-04-20|COL-LPC, US
213.214.66.182|43205|213.214.64.0/19|BG|ripencc|2009-04-22|BULSATCOM-BG-AS Sofia, BG
213.239.220.183|24940|213.239.192.0/18|DE|ripencc|2003-05-28|HETZNER-AS, DE
216.18.178.238|29789|216.18.160.0/19|US|arin|2009-08-31|REFLECTED, US
23.119.126.20|7018|23.112.0.0/12|US|arin|2013-08-09|ATT-INTERNET4, US
3.101.125.70|16509|3.101.0.0/16|US|arin|2017-12-20|AMAZON-02, US
3.104.224.80|16509|3.104.0.0/14|US|arin|2017-12-20|AMAZON-02, US
3.96.190.111|16509|3.96.0.0/15|US|arin|2017-12-20|AMAZON-02, US
31.164.104.12|6730|31.164.0.0/15|CH|ripencc|2011-02-23|SUNRISE, CH
34.213.114.64|16509|34.208.0.0/12|US|arin|2016-09-12|AMAZON-02, US
34.78.14.25|15169|34.76.0.0/14|US|arin|2018-09-28|GOOGLE, US
35.228.173.101|15169|35.228.0.0/14|US|arin|2017-09-29|GOOGLE, US
35.237.109.49|15169|35.236.0.0/14|US|arin|2017-09-29|GOOGLE, US
35.242.148.200|15169|35.240.0.0/14|US|arin|2017-09-29|GOOGLE, US
35.245.67.98|15169|35.244.0.0/14|US|arin|2017-09-29|GOOGLE, US
37.1.217.35|58061|37.1.216.0/21|GB|ripencc|2011-12-13|SCALAXY-AS, NL
45.92.43.12|208612|45.92.43.0/24|GB|ripencc|2019-07-01|AS-KURT, GB
46.166.129.155|43350|46.166.128.0/21|NL|ripencc|2010-12-16|NFORCE, NL
46.20.2.222|43260|46.20.2.0/24|TR|ripencc|2010-07-22|AS43260, TR
46.30.165.147|25521|46.30.160.0/21|UA|ripencc|2010-09-03|ASN-ASIPN, UA
46.4.88.46|24940|46.4.0.0/16|DE|ripencc|2010-08-19|HETZNER-AS, DE
46.59.184.81|15943|46.59.128.0/17|DE|ripencc|2010-10-21|WTNET-AS wilhelm.tel GmbH, DE
47.110.92.146|37963|47.110.0.0/16|CN|apnic|1989-01-06|CNNIC-ALIBABA-CN-NET-AP Hangzhou Alibaba Advertising Co.,Ltd., CN
47.253.1.115|45102|47.253.0.0/17|US|arin|2016-04-15|CNNIC-ALIBABA-US-NET-AP Alibaba (US) Technology Co., Ltd., CN
5.102.205.76|47956|5.102.204.0/22|IL|ripencc|2012-06-27|XFONE, IL
5.188.56.59|49505|5.188.56.0/22|RU|ripencc|2012-08-09|SELECTEL, RU
5.188.62.18|34665|5.188.62.0/24|RU|ripencc|2012-08-09|PINDC-AS, RU
5.189.149.2|51167|5.189.144.0/20|DE|ripencc|2012-08-09|CONTABO, DE
5.189.184.249|51167|5.189.176.0/20|DE|ripencc|2012-08-09|CONTABO, DE
5.39.122.20|16276|5.39.0.0/17|FR|ripencc|2012-05-15|OVH, FR
5.39.216.189|57043|5.39.216.0/24|NL|ripencc|2012-05-16|HOSTKEY-AS, NL
5.9.247.73|24940|5.9.0.0/16|DE|ripencc|2012-04-25|HETZNER-AS, DE
50.96.88.84|7029|50.96.0.0/16|US|arin|2011-03-11|WINDSTREAM, US
51.154.136.60|15796|51.154.0.0/16|CH|ripencc|1993-09-01|SALT-, CH
51.68.208.252|16276|51.68.0.0/16|FR|ripencc|1993-09-01|OVH, FR
52.119.120.105|32329|52.119.120.0/21|US|arin|2016-08-04|MONKEYBRAINS, US
54.79.89.2|16509|54.79.0.0/17|US|arin|2014-06-20|AMAZON-02, US
62.210.103.45|12876|62.210.0.0/16|FR|ripencc|2000-10-26|Online SAS, FR
62.234.169.68|45090|62.234.160.0/20|CN|apnic|2001-07-30|CNNIC-TENCENT-NET-AP Shenzhen Tencent Computer Systems Company Limited, CN
66.18.172.21|11711|66.18.160.0/20|US|arin|2004-03-03|TULAROSA-COMMUNICATIONS, US
66.29.128.23|22612|66.29.128.0/24|US|arin|2021-03-05|NAMECHEAP-NET, US
66.36.142.196|6280|66.36.140.0/22|CA|arin|2002-08-22|SYNAPSE, CA
69.59.18.206|397444|69.59.18.0/24|US|arin|2019-04-18|AS-OKI, US
72.71.251.161|13672|72.71.192.0/18|US|arin|2005-06-24|FAIRPO-3, US
73.16.228.10|7922|73.0.0.0/8|US|arin|2005-04-19|COMCAST-7922, US
73.181.212.48|7922|73.0.0.0/8|US|arin|2005-04-19|COMCAST-7922, US
74.213.232.248|14978|74.213.232.0/24|US|arin|2008-05-01|CSSBB, US
75.40.139.204|7018|75.40.0.0/14|US|arin|2006-02-28|ATT-INTERNET4, US
77.117.146.123|25255|77.116.0.0/14|AT|ripencc|2007-01-10|H3G-AUSTRIA-AS ==) TELE2 AUSTRIA (==, AT
77.3.139.164|6805|77.0.0.0/12|DE|ripencc|2006-11-21|TDDE-ASN1, DE
77.53.135.74|45011|77.53.0.0/16|SE|ripencc|2007-01-24|SE-A3 http://www.a3.se/, SE
77.85.204.149|8866|77.85.204.0/24|BG|ripencc|2007-03-19|BTC-AS BULGARIA, BG
78.129.221.31|20860|78.129.128.0/17|GB|ripencc|2007-04-18|IOMART-AS, GB
78.72.228.239|3301|78.64.0.0/12|SE|ripencc|2007-03-09|TELIANET-SWEDEN Telia Company, SE
78.94.132.235|3209|78.94.128.0/17|DE|ripencc|2007-07-20|VODANET International IP-Backbone of Vodafone, DE
79.17.162.154|3269|79.16.0.0/15|IT|ripencc|2007-02-21|ASN-IBSNAZ, IT
80.152.186.194|3320|80.152.0.0/14|DE|ripencc|2001-08-06|DTAG Internet service provider operations, DE
81.0.198.25|21430|81.0.198.0/24|CZ|ripencc|2001-12-14|WIA-AS, CZ
82.75.15.130|33915|82.74.0.0/15|NL|ripencc|2003-07-04|TNF-AS, NL
83.128.49.155|15435|83.128.0.0/16|NL|ripencc|2004-01-05|KABELFOON DELTA Fiber Nederland, NL
83.250.33.183|39651|83.248.0.0/13|SE|ripencc|2004-03-04|TELE2-FIXED-SWEDEN, SE
85.95.232.77|49467|85.95.232.0/24|TR|ripencc|2010-01-06|EUROTA-ASN EUROTA INTERNET SERVICES LTD, TR
86.111.88.138|39608|86.111.64.0/19|UA|ripencc|2008-12-03|LANETUA-AS, UA
86.12.72.113|5089|86.12.0.0/17|GB|ripencc|2005-03-29|NTL, GB
86.14.0.69|5089|86.14.0.0/15|GB|ripencc|2005-03-29|NTL, GB
87.244.227.100|31117|87.244.192.0/18|SK|ripencc|2005-08-19|ENERGOTEL-AS, SK
88.132.187.14|35311|88.132.160.0/19|HU|ripencc|2005-10-26|PR-TELECOM-AS, HU
91.193.237.116|42916|91.193.236.0/23|RU|ripencc|2007-05-09|IT-AS, RU
91.228.45.130|197895|91.228.44.0/22|CZ|ripencc|2011-05-23|ONYX-AS ONYX engineering, spol. s r. o., CZ
91.237.77.5|198646|91.237.77.0/24|PL|ripencc|2012-03-21|INETHD-AS, PL
92.91.191.172|15557|92.88.0.0/13|FR|ripencc|2007-10-17|LDCOMNET, FR
93.138.188.22|5391|93.138.0.0/16|HR|ripencc|2008-04-23|T-HT Croatian Telecom Inc., HR
93.190.140.14|49981|93.190.140.0/22|NL|ripencc|2008-05-16|WORLDSTREAM, NL
94.231.253.18|35224|94.231.253.0/24|NL|ripencc|2009-06-23|PLINQ, NL
97.84.96.62|20115|97.84.64.0/18|US|arin|2007-03-21|CHARTER-20115, US
