# bitcoin dns seeds and whois results
IP Address|ASN|BGP Prefix|CC|Registry|Allocated|AS Name
103.99.168.150|54415|103.99.168.0/24|JP|apnic|2017-08-28|WIZ-JP-AS-AP WIZ K.K., JP
104.149.173.150|40676|104.149.0.0/16|US|arin|2014-07-01|AS40676, US
108.48.41.161|701|108.48.0.0/13|US|arin|2009-06-05|UUNET, US
109.173.41.95|42610|109.173.0.0/17|RU|ripencc|2009-11-20|NCNET-AS, RU
109.201.142.117|43350|109.201.128.0/19|NL|ripencc|2010-02-12|NFORCE, NL
109.227.19.190|12810|109.227.0.0/18|HR|ripencc|2010-01-28|VIPNET-AS 3G/GSM and Internet Service Provider, HR
116.202.51.176|24940|116.202.0.0/16|DE|ripencc|2011-01-17|HETZNER-AS, DE
116.87.79.176|55430|116.87.64.0/18|SG|apnic|2007-05-18|STARHUB-NGNBN Starhub Ltd, SG
128.0.190.26|30764|128.0.176.0/20|CZ|ripencc|2012-09-14|PODA-AS, CZ
129.21.34.18|4385|129.21.0.0/16|US|arin|1987-07-14|RIT-ASN, US
13.212.4.107|16509|13.212.0.0/15|US|arin|2019-10-01|AMAZON-02, US
13.228.25.171|16509|13.228.0.0/15|US|arin|2019-10-01|AMAZON-02, US
13.51.141.92|16509|13.51.0.0/16|US|arin|2020-08-05|AMAZON-02, US
135.0.225.179|54614|135.0.224.0/21|CA|arin|2012-03-19|CIKTELECOM-CABLE, CA
139.159.232.235|55990|139.159.224.0/19|CN|apnic|2011-03-09|HWCSNET Huawei Cloud Service data center, CN
14.39.151.167|4766|14.32.0.0/13|KR|apnic|2010-08-02|KIXS-AS-KR Korea Telecom, KR
143.110.171.191|14061|143.110.160.0/20|US|arin|2020-01-17|DIGITALOCEAN-ASN, US
147.32.127.195|2852|147.32.0.0/15|CZ|ripencc|1991-06-18|CESNET2, CZ
148.251.127.121|24940|148.251.0.0/16|DE|ripencc|1993-09-01|HETZNER-AS, DE
149.71.73.71|48945|149.71.64.0/20|US|arin|1992-01-28|IFNL-AS, GB
163.158.243.230|15435|163.158.0.0/16|NL|ripencc|1992-09-01|KABELFOON DELTA Fiber Nederland, NL
167.71.204.250|14061|167.71.192.0/20|US|arin|2019-04-24|DIGITALOCEAN-ASN, US
168.119.176.153|24940|168.119.0.0/16|DE|ripencc|1994-04-05|HETZNER-AS, DE
168.119.32.43|24940|168.119.0.0/16|DE|ripencc|1994-04-05|HETZNER-AS, DE
168.61.55.120|8075|168.61.0.0/16|US|arin|2011-06-22|MICROSOFT-CORP-MSN-AS-BLOCK, US
169.1.95.188|37611|169.0.0.0/15|ZA|afrinic|2015-07-01|Afrihost, ZA
169.44.34.203|36351|169.44.0.0/17|US|ripencc|1993-09-01|SOFTLAYER, US
173.212.243.27|51167|173.212.240.0/21|DE|ripencc|2009-10-26|CONTABO, DE
174.3.197.218|6327|174.3.196.0/22|CA|arin|2008-11-19|SHAW, CA
176.9.57.195|24940|176.9.0.0/16|DE|ripencc|2011-05-17|HETZNER-AS, DE
178.62.106.78|14061|178.62.64.0/18|US|ripencc|2010-02-26|DIGITALOCEAN-ASN, US
178.79.83.93|3212|178.79.64.0/18|SI|ripencc|2010-05-07|TELEMACH Broadband Access & Carrier Services, SI
178.84.195.232|33915|178.84.0.0/16|NL|ripencc|2009-12-19|TNF-AS, NL
179.235.222.78|28573|179.235.192.0/19|BR|lacnic|2012-11-14|CLARO S.A., BR
18.134.242.0|16509|18.132.0.0/14|US|arin|2019-10-07|AMAZON-02, US
184.96.128.205|209|184.96.0.0/16|US|arin|2010-04-06|CENTURYLINK-US-LEGACY-QWEST, US
185.113.129.154|42831|185.113.128.0/23|GB|ripencc|2015-08-14|UKSERVERS-AS UK Dedicated Servers, Hosting and Co-Location, GB
185.131.63.83|44489|185.131.60.0/22|CZ|ripencc|2015-12-15|STARNET, CZ
185.6.124.16|47321|185.6.124.0/24|RU|ripencc|2012-10-12|IIF-AS, RU
185.75.117.124|48926|185.75.116.0/22|CZ|ripencc|2014-10-31|PE3NY-AS, CZ
189.0.171.79|26599|189.0.0.0/16|BR|lacnic|2006-08-22|TELEFONICA BRASIL S.A, BR
193.106.29.2|50297|193.106.28.0/22|UA|ripencc|2009-11-30|INFIUM, UA
193.138.218.72|39351|193.138.216.0/22|SE|ripencc|2006-02-06|ESAB-AS, SE
195.123.188.186|197726|195.123.188.0/24|UA|ripencc|1997-04-04|UKRNAMES-AS, UA
195.135.194.8|39149|195.135.194.0/24|RO|ripencc|2009-01-14|STS International SRL, RO
202.61.224.27|197540|202.61.224.0/20|AT|ripencc|2003-07-07|NETCUP-AS netcup GmbH, DE
207.180.225.253|51167|207.180.224.0/23|DE|ripencc|1996-08-21|CONTABO, DE
209.236.228.26|21554|209.236.224.0/20|US|arin|2003-01-03|CYBERLYNK, US
212.62.216.121|21263|212.62.192.0/19|DE|ripencc|1998-08-21|TELEDATA-AS TeleData GmbH, DE
217.64.47.138|39324|217.64.32.0/20|FI|ripencc|2010-05-12|MEDIAM-AS, FI
24.116.153.115|11492|24.116.153.0/24|US|arin|1996-09-25|CABLEONE, US
24.121.34.166|19108|24.121.0.0/17|US|arin|2001-09-20|SUDDENLINK-COMMUNICATIONS, US
27.109.176.81|4609|27.109.160.0/19|MO|apnic|2010-06-10|CTM-MO Companhia de Telecomunicacoes de Macau SARL, MO
3.16.37.222|16509|3.16.0.0/14|US|arin|2017-12-20|AMAZON-02, US
3.96.218.124|16509|3.96.0.0/15|US|arin|2017-12-20|AMAZON-02, US
34.106.170.167|15169|34.104.0.0/14|US|arin|2018-09-28|GOOGLE, US
34.200.242.216|14618|34.192.0.0/12|US|arin|2016-09-12|AMAZON-AES, US
34.82.26.8|15169|34.80.0.0/14|US|arin|2018-09-28|GOOGLE, US
34.84.157.174|15169|34.84.0.0/14|US|arin|2018-09-28|GOOGLE, US
35.226.53.239|15169|35.224.0.0/14|US|arin|2017-09-29|GOOGLE, US
37.6.12.229|25472|37.6.0.0/17|GR|ripencc|2011-12-12|WIND-AS, GR
39.99.232.25|37963|39.96.0.0/14|CN|apnic|2011-04-05|CNNIC-ALIBABA-CN-NET-AP Hangzhou Alibaba Advertising Co.,Ltd., CN
46.28.132.34|39586|46.28.128.0/21|RU|ripencc|2010-07-22|SATURNTELECOM, RU
47.89.21.168|45102|47.89.0.0/19|US|arin|2015-05-18|CNNIC-ALIBABA-US-NET-AP Alibaba (US) Technology Co., Ltd., CN
5.135.166.43|16276|5.135.0.0/16|FR|ripencc|2012-07-06|OVH, FR
5.189.173.197|51167|5.189.160.0/20|DE|ripencc|2012-08-09|CONTABO, DE
5.9.161.214|24940|5.9.0.0/16|DE|ripencc|2012-04-25|HETZNER-AS, DE
51.210.215.138|16276|51.210.0.0/16|FR|ripencc|1993-09-01|OVH, FR
52.78.49.245|16509|52.78.0.0/16|US|arin|1991-12-19|AMAZON-02, US
62.133.194.156|28788|62.133.192.0/18|NL|ripencc|2003-02-21|UNILOGICNET-AS, NL
62.171.165.119|51167|62.171.164.0/23|DE|ripencc|2000-08-18|CONTABO, DE
62.28.190.194|15525|62.28.0.0/16|PT|ripencc|2006-06-08|MEO-EMPRESAS, PT
62.77.155.168|62282|62.77.152.0/21|LT|ripencc|2000-07-25|RACKRAY UAB Rakrejus, LT
65.21.73.163|24940|65.21.0.0/16|DE|ripencc|2001-09-26|HETZNER-AS, DE
68.105.180.215|22773|68.105.176.0/20|US|arin|2002-02-04|ASN-CXA-ALL-CCI-22773-RDC, US
69.8.175.201|21766|69.8.175.0/24|US|arin|2010-12-03|BEN-LOMAND-TEL, US
72.68.29.212|701|72.68.0.0/17|US|arin|2005-06-24|UUNET, US
74.220.255.190|23175|74.220.254.0/23|US|arin|2008-07-24|POGOZONE, US
75.103.209.147|19751|75.103.192.0/19|US|arin|2008-02-19|CCRTC, US
75.97.59.1|3737|75.97.0.0/16|US|arin|2009-01-30|AS-PTD, US
76.10.221.49|11013|76.10.208.0/20|US|arin|2007-03-02|BLUE-AS, US
77.242.84.34|41046|77.242.80.0/20|CZ|ripencc|2007-02-27|NEJTV-AS, CZ
78.46.78.206|24940|78.46.0.0/15|DE|ripencc|2007-04-16|HETZNER-AS, DE
80.250.55.32|43513|80.250.48.0/20|LV|ripencc|2005-07-19|NANO-AS, LV
81.177.196.122|200982|81.177.196.0/23|RU|ripencc|2003-01-15|ZT-TOMSK-AS, RU
82.148.25.100|49505|82.148.24.0/22|RU|ripencc|2003-07-10|SELECTEL, RU
82.160.215.7|20960|82.160.0.0/16|PL|ripencc|2003-07-01|TKTELEKOM-AS, PL
82.61.145.195|3269|82.61.0.0/16|IT|ripencc|2003-08-07|ASN-IBSNAZ, IT
84.38.3.249|196691|84.38.0.0/22|RU|ripencc|2012-05-31|GET-NET-AS, RU
85.212.237.98|12312|85.212.192.0/18|DE|ripencc|2005-02-22|ECOTEL, DE
85.214.143.87|6724|85.214.0.0/15|DE|ripencc|2005-02-24|STRATO STRATO AG, DE
85.233.39.33|35244|85.233.32.0/19|DE|ripencc|2005-04-20|KMS-DE_AS, DE
85.25.194.12|8972|85.25.192.0/20|DE|ripencc|2005-12-05|GD-EMEA-DC-SXB1, DE
86.24.166.3|5089|86.24.0.0/13|GB|ripencc|2005-03-29|NTL, GB
86.82.214.134|1136|86.80.0.0/12|NL|ripencc|2005-03-23|KPN KPN National, NL
87.127.96.102|8468|87.127.0.0/16|GB|ripencc|2005-09-08|ENTANET ENTANET International Limited, GB
87.62.101.114|3292|87.48.0.0/12|DK|ripencc|2005-05-20|TDC TDC A/S, DK
89.108.122.224|197695|89.108.122.0/24|RU|ripencc|2006-03-20|AS-REG, RU
89.239.99.102|31608|89.239.96.0/19|PL|ripencc|2007-05-25|GAWEX-AS Plac Wolnosci 11 Szczecinek, PL
89.245.65.234|8881|89.245.64.0/20|DE|ripencc|2006-05-04|VERSATEL, DE
90.224.117.204|3301|90.224.0.0/12|SE|ripencc|2006-05-30|TELIANET-SWEDEN Telia Company, SE
90.224.159.157|3301|90.224.0.0/12|SE|ripencc|2006-05-30|TELIANET-SWEDEN Telia Company, SE
91.114.182.95|8447|91.112.0.0/14|AT|ripencc|2006-09-04|A1TELEKOM-AT A1 Telekom Austria AG, AT
91.209.51.131|48239|91.209.51.0/24|UA|ripencc|2008-10-22|ITTV-AS Kiev, Ukraine, UA
91.228.152.252|44066|91.228.152.0/22|ES|ripencc|2011-06-01|DE-FIRSTCOLO www.first-colo.net, DE
91.48.211.202|3320|91.0.0.0/10|DE|ripencc|2006-07-03|DTAG Internet service provider operations, DE
91.87.96.138|47377|91.87.96.0/19|BE|ripencc|2006-08-15|ORANGE_BELGIUM_SA New company name is Orange Belgium SA, BE
92.188.122.55|8362|92.188.64.0/18|FR|ripencc|2007-07-12|20 rue Denis Papin, FR
92.91.191.172|15557|92.88.0.0/13|FR|ripencc|2007-10-17|LDCOMNET, FR
93.190.140.14|49981|93.190.140.0/22|NL|ripencc|2008-05-16|WORLDSTREAM, NL
95.154.90.99|44724|95.154.90.0/24|RU|ripencc|2009-02-24|OCTOPUSNET-AS, RU
95.182.113.34|48780|95.182.112.0/23|CZ|ripencc|2009-02-05|ROSTELECOM-AS, CZ
95.183.55.40|197988|95.183.48.0/20|CH|ripencc|2009-02-10|SOLARCOM, CH
95.211.193.12|60781|95.211.0.0/16|NL|ripencc|2009-02-05|LEASEWEB-NL-AMS-01 Netherlands, NL
95.214.53.154|201814|95.214.52.0/22|PL|ripencc|2018-12-21|PL-SKYTECH-AS, PL
95.48.228.45|5617|95.48.0.0/14|PL|ripencc|2008-09-26|TPNET, PL
99.192.223.19|27589|99.192.128.0/17|US|arin|2009-04-22|MOJOHOST, US
