# bitcoin dns seeds and whois results
IP Address|ASN|BGP Prefix|CC|Registry|Allocated|AS Name
102.182.204.96|37611|102.182.0.0/16|ZA|afrinic|2017-06-02|Afrihost, ZA
104.166.89.122|46261|104.166.64.0/19|US|arin|2014-08-12|QUICKPACKET, US
12.191.193.202|7018|12.128.0.0/9|US|arin|1983-08-23|ATT-INTERNET4, US
120.79.148.203|37963|120.79.0.0/16|CN|apnic|2008-03-27|CNNIC-ALIBABA-CN-NET-AP Hangzhou Alibaba Advertising Co.,Ltd., CN
122.107.67.35|4804|122.106.0.0/15|AU|apnic|2007-11-13|MPX-AS Microplex PTY LTD, AU
129.192.83.191|29518|129.192.80.0/22|US|arin|1994-11-15|BREDBAND2, SE
13.229.150.245|16509|13.228.0.0/15|US|arin|2019-10-01|AMAZON-02, US
13.49.228.150|16509|13.48.0.0/15|US|arin|2020-08-05|AMAZON-02, US
13.71.136.69|8075|13.64.0.0/11|US|arin|2015-03-26|MICROSOFT-CORP-MSN-AS-BLOCK, US
13.79.6.157|8075|13.64.0.0/11|US|arin|2015-03-26|MICROSOFT-CORP-MSN-AS-BLOCK, US
135.180.44.61|46375|135.180.0.0/16|US|arin|2013-05-10|AS-SONICTELECOM, US
14.187.112.11|45899|14.187.112.0/20|VN|apnic|2010-08-16|VNPT-AS-VN VNPT Corp, VN
143.110.175.241|14061|143.110.160.0/20|US|arin|2020-01-17|DIGITALOCEAN-ASN, US
143.202.160.10|52423|143.202.160.0/24|CR|lacnic|2015-10-16|Data Miners S.A. ( Racknation.cr ), CR
144.137.29.181|1221|144.136.0.0/15|AU|apnic|1990-12-10|ASN-TELSTRA Telstra Corporation Ltd, AU
144.172.174.12|5769|144.172.128.0/18|CA|arin|2014-05-13|VIDEOTRON, CA
146.52.61.100|3209|146.52.0.0/16|DE|ripencc|2011-07-07|VODANET International IP-Backbone of Vodafone, DE
148.170.212.44|396287|148.170.192.0/19|US|arin|2019-03-18|NEXTPOWEREDBYNAECLLC, US
159.250.153.179|11776|159.250.152.0/23|US|arin|2019-09-03|ATLANTICBB-JOHNSTOWN, US
164.90.134.28|14061|164.90.128.0/20|US|arin|2019-08-19|DIGITALOCEAN-ASN, US
166.70.94.106|6315|166.70.0.0/16|US|arin|1997-02-19|XMISSION, US
170.250.84.130|23089|170.250.0.0/17|US|arin|2015-11-02|HOTWIRE-COMMUNICATIONS, US
173.59.127.191|701|173.59.64.0/18|US|arin|2008-10-09|UUNET, US
174.115.197.190|812|174.115.192.0/18|CA|arin|2009-03-04|ROGERS-COMMUNICATIONS, CA
176.196.98.66|39927|176.196.0.0/15|RU|ripencc|2011-07-15|ELIGHT-AS, RU
176.99.6.226|49352|176.99.6.0/24|RU|ripencc|2012-06-26|LOGOL-AS, RU
178.159.1.148|42831|178.159.0.0/20|GB|ripencc|2010-08-19|UKSERVERS-AS UK Dedicated Servers, Hosting and Co-Location, GB
178.16.222.146|50821|178.16.208.0/20|SE|ripencc|2010-03-09|ASHPDC, SE
178.63.2.220|24940|178.63.0.0/16|DE|ripencc|2010-03-02|HETZNER-AS, DE
178.79.83.93|3212|178.79.64.0/18|SI|ripencc|2010-05-07|TELEMACH Broadband Access & Carrier Services, SI
18.27.79.17|3|18.27.0.0/16|US|arin|1994-01-01|MIT-GATEWAYS, US
184.66.170.113|6327|184.66.168.0/22|CA|arin|2010-01-15|SHAW, CA
185.143.45.39|55293|185.143.44.0/22|US|ripencc|2016-03-11|A2HOSTING, US
185.254.97.164|60548|185.254.96.0/22|DE|ripencc|2018-04-10|AVORO Avoro, DE
188.127.183.29|15704|188.127.160.0/19|ES|ripencc|2009-07-30|AS15704, ES
188.166.190.154|14061|188.166.176.0/20|US|ripencc|2009-06-05|DIGITALOCEAN-ASN, US
188.214.133.114|16125|188.214.128.0/21|LT|ripencc|2009-05-08|CHERRYSERVERS1-AS, LT
188.35.167.14|34123|188.35.0.0/16|RU|ripencc|2009-03-31|NETORN-AS, RU
190.177.81.142|22927|190.176.0.0/15|AR|lacnic|2008-03-11|Telefonica de Argentina, AR
190.215.121.121|18822|190.215.121.0/24|CL|lacnic|2010-08-18|Manquehuenet, CL
192.166.219.200|41508|192.166.216.0/22|PL|ripencc|2011-03-03|PL-IWACOM-AS, PL
193.250.73.36|3215|193.250.0.0/16|FR|ripencc|1993-09-01|France Telecom - Orange, FR
199.189.242.141|21766|199.189.240.0/21|US|arin|2011-08-19|BEN-LOMAND-TEL, US
199.247.19.74|20473|199.247.16.0/21|US|ripencc|1996-04-09|AS-CHOOPA, US
20.73.167.33|8075|20.64.0.0/10|US|arin|2017-10-18|MICROSOFT-CORP-MSN-AS-BLOCK, US
202.112.51.84|23910|202.112.51.0/24|CN|apnic|1995-09-21|CNGI-CERNET2-AS-AP China Next Generation Internet CERNET2, CN
206.189.107.216|14061|206.189.96.0/20|US|arin|1995-11-15|DIGITALOCEAN-ASN, US
206.189.32.48|14061|206.189.32.0/20|US|arin|1995-11-15|DIGITALOCEAN-ASN, US
206.81.16.219|14061|206.81.16.0/20|US|arin|1995-08-11|DIGITALOCEAN-ASN, US
207.154.235.64|14061|207.154.224.0/20|US|arin|2016-04-12|DIGITALOCEAN-ASN, US
209.185.171.230|3561|209.185.160.0/19|US|arin|1997-12-10|CENTURYLINK-LEGACY-SAVVIS, US
210.187.236.219|4788|210.187.224.0/19|MY|apnic|2001-08-20|TMNET-AS-AP TM Net, Internet Service Provider, MY
210.245.40.27|18403|210.245.40.0/21|VN|apnic|2003-11-19|FPT-AS-AP The Corporation for Financing & Promoting Technology, VN
211.251.250.7|4766|211.250.0.0/15|KR|apnic|2000-09-08|KIXS-AS-KR Korea Telecom, KR
212.62.223.46|21263|212.62.192.0/19|DE|ripencc|1998-08-21|TELEDATA-AS TeleData GmbH, DE
213.221.218.50|15600|213.221.192.0/18|CH|ripencc|2003-03-07|FINECOM Quickline AG, CH
213.239.208.9|24940|213.239.192.0/18|DE|ripencc|2003-05-28|HETZNER-AS, DE
219.88.234.10|4771|219.88.232.0/21|NZ|apnic|2002-04-05|SPARKNZ Spark New Zealand Trading Ltd., NZ
27.230.7.173|9605|27.230.0.0/19|JP|apnic|2010-03-27|DOCOMO NTT DOCOMO, INC., JP
3.121.94.224|16509|3.120.0.0/14|US|arin|2017-12-20|AMAZON-02, US
3.131.13.61|16509|3.131.0.0/16|US|arin|2018-06-25|AMAZON-02, US
3.16.37.222|16509|3.16.0.0/14|US|arin|2017-12-20|AMAZON-02, US
3.96.218.124|16509|3.96.0.0/15|US|arin|2017-12-20|AMAZON-02, US
31.42.184.85|30860|31.42.184.0/23|UA|ripencc|2011-02-23|YURTEH-AS, UA
34.87.252.166|15169|34.84.0.0/14|US|arin|2018-09-28|GOOGLE, US
34.95.17.184|15169|34.92.0.0/14|US|arin|2018-09-28|GOOGLE, US
35.187.108.126|15169|35.187.96.0/19|US|arin|2016-10-11|GOOGLE, US
35.231.217.24|15169|35.228.0.0/14|US|arin|2017-09-29|GOOGLE, US
35.234.78.228|15169|35.232.0.0/14|US|arin|2017-09-29|GOOGLE, US
37.138.202.228|9145|37.138.0.0/16|DE|ripencc|2012-02-23|EWETEL Cloppenburger Strasse 310, DE
37.143.116.43|48926|37.143.112.0/21|CZ|ripencc|2012-03-02|PE3NY-AS, CZ
38.111.114.155|62563|38.111.114.0/24|US|arin|1991-04-16|AS-GLOBALTELEHOST, CA
47.72.89.73|9500|47.72.0.0/16|US|arin|2012-05-15|VODAFONE-TRANSIT-AS Vodafone NZ Ltd., NZ
50.53.250.162|27017|50.53.0.0/16|US|arin|2010-09-24|ZIPLY-FIBER-LEGACY-ASN, US
50.68.104.92|6327|50.68.104.0/22|CA|arin|2010-10-28|SHAW, CA
51.38.144.116|16276|51.38.0.0/16|FR|ripencc|1993-09-01|OVH, FR
51.77.117.99|16276|51.77.0.0/16|FR|ripencc|1993-09-01|OVH, FR
51.77.152.20|16276|51.77.0.0/16|FR|ripencc|1993-09-01|OVH, FR
52.214.5.250|16509|52.208.0.0/13|US|arin|2015-09-02|AMAZON-02, US
62.107.200.30|197288|62.107.0.0/16|DK|ripencc|2001-06-22|STOFANET, DK
64.225.18.167|14061|64.225.16.0/20|US|arin|2019-08-14|DIGITALOCEAN-ASN, US
66.76.11.10|19108|66.76.0.0/17|US|arin|2001-02-06|SUDDENLINK-COMMUNICATIONS, US
67.149.7.161|12083|67.149.0.0/21|US|arin|2004-02-19|WOW-INTERNET, US
67.176.235.114|7922|67.160.0.0/11|US|arin|2002-12-16|COMCAST-7922, US
69.209.23.72|7018|69.208.0.0/15|US|arin|2004-02-10|ATT-INTERNET4, US
69.221.131.44|7018|69.216.0.0/13|US|arin|2004-02-10|ATT-INTERNET4, US
77.247.178.14|43350|77.247.176.0/21|NL|ripencc|2007-06-26|NFORCE, NL
78.129.165.63|20860|78.129.128.0/17|GB|ripencc|2007-04-18|IOMART-AS, GB
78.142.6.117|31083|78.142.6.0/24|BG|ripencc|2007-07-30|TELEPOINT, BG
78.26.26.146|202204|78.26.0.0/18|NO|ripencc|2007-08-29|TROLLFJORD, NO
8.209.108.240|45102|8.209.96.0/19|SG|apnic|1992-12-01|CNNIC-ALIBABA-US-NET-AP Alibaba (US) Technology Co., Ltd., CN
80.211.105.59|31034|80.211.0.0/17|IT|ripencc|2001-12-12|ARUBA-ASN, IT
80.31.199.8|3352|80.31.0.0/16|ES|ripencc|2001-07-09|TELEFONICA_DE_ESPANA, ES
81.236.246.232|3301|81.224.0.0/12|SE|ripencc|2002-10-04|TELIANET-SWEDEN Telia Company, SE
81.4.110.168|198203|81.4.108.0/22|NL|ripencc|2002-05-10|ASN-ROUTELABEL, NL
82.116.50.101|30936|82.116.32.0/19|RU|ripencc|2004-01-20|RENET-COM-AS RENET COM Autonomous System, RU
82.64.206.205|12322|82.64.0.0/14|FR|ripencc|2003-04-03|PROXAD, FR
84.112.60.16|6830|84.112.0.0/15|AT|ripencc|2004-04-07|LIBERTYGLOBAL Liberty Global (formerly UPC Broadband Holding, aka AORTA), NL
84.17.54.71|60068|84.17.54.0/23|GB|ripencc|2004-07-23|CDN77 (^_^)/, GB
84.38.188.114|49505|84.38.188.0/23|RU|ripencc|2010-07-06|SELECTEL, RU
84.38.3.249|196691|84.38.0.0/22|RU|ripencc|2012-05-31|GET-NET-AS, RU
86.24.166.3|5089|86.24.0.0/13|GB|ripencc|2005-03-29|NTL, GB
87.57.16.20|3292|87.48.0.0/12|DK|ripencc|2005-05-20|TDC TDC A/S, DK
87.62.101.114|3292|87.48.0.0/12|DK|ripencc|2005-05-20|TDC TDC A/S, DK
87.79.94.221|8422|87.78.0.0/15|DE|ripencc|2005-05-31|NETCOLOGNE, DE
88.100.198.253|5610|88.100.0.0/15|CZ|ripencc|2005-10-04|O2-CZECH-REPUBLIC, CZ
90.43.165.154|3215|90.43.0.0/16|FR|ripencc|2006-03-02|France Telecom - Orange, FR
92.195.35.67|20676|92.192.0.0/13|DE|ripencc|2007-10-17|PLUSNET *****************, DE
93.42.78.173|12874|93.42.0.0/16|IT|ripencc|2008-02-25|FASTWEB, IT
93.95.102.81|48347|93.95.100.0/22|RU|ripencc|2008-03-28|MTW-AS, RU
94.130.10.158|24940|94.130.0.0/16|DE|ripencc|2008-06-23|HETZNER-AS, DE
95.164.65.194|39762|95.164.65.0/24|GI|ripencc|2008-12-31|VAK Poltava, Ukraine, UA
95.211.82.207|60781|95.211.0.0/16|NL|ripencc|2009-02-05|LEASEWEB-NL-AMS-01 Netherlands, NL
95.6.51.216|47331|95.6.51.0/24|TR|ripencc|2008-10-14|TTNET, TR
96.247.202.109|701|96.247.192.0/19|US|arin|2006-12-29|UUNET, US
98.25.193.114|11426|98.24.0.0/15|US|arin|2007-11-02|TWC-11426-CAROLINAS, US
99.107.94.97|7018|99.106.0.0/15|US|arin|2008-02-25|ATT-INTERNET4, US
99.39.254.91|7018|99.32.0.0/12|US|arin|2008-02-25|ATT-INTERNET4, US
