# bitcoin dns seeds and whois results
IP Address|ASN|BGP Prefix|CC|Registry|Allocated|AS Name
104.199.66.224|15169|104.199.64.0/19|US|arin|2014-08-27|GOOGLE, US
109.199.241.148|25374|109.199.241.0/24|BG|ripencc|2010-01-26|ESCOMBG-AS Local Internet Service Provider Bulgaria, BG
111.90.140.132|45839|111.90.140.0/24|MY|apnic|2009-06-17|SHINJIRU-MY-AS-AP Shinjiru Technology Sdn Bhd, MY
113.67.178.117|4134|113.64.0.0/11|CN|apnic|2008-11-03|CHINANET-BACKBONE No.31,Jin-rong Street, CN
116.202.196.182|24940|116.202.0.0/16|DE|ripencc|2011-01-17|HETZNER-AS, DE
116.202.51.176|24940|116.202.0.0/16|DE|ripencc|2011-01-17|HETZNER-AS, DE
116.87.79.176|55430|116.87.64.0/18|SG|apnic|2007-05-18|STARHUB-NGNBN Starhub Ltd, SG
121.78.223.195|9286|121.78.192.0/18|KR|apnic|2006-06-20|KINXIDC-AS-KR KINX, KR
128.199.50.213|14061|128.199.32.0/19|GB|ripencc|1999-04-12|DIGITALOCEAN-ASN, US
131.203.254.122|9503|131.203.128.0/17|NZ|apnic|1989-01-16|FX-PRIMARY-AS FX Networks Limited, NZ
135.181.1.135|24940|135.181.0.0/16|DE|ripencc|1996-04-30|HETZNER-AS, DE
143.110.175.248|14061|143.110.160.0/20|US|arin|2020-01-17|DIGITALOCEAN-ASN, US
148.251.151.125|24940|148.251.0.0/16|DE|ripencc|1993-09-01|HETZNER-AS, DE
15.228.87.193|16509|15.228.0.0/15|US|arin|2019-03-26|AMAZON-02, US
159.65.221.193|14061|159.65.216.0/21|US|arin|2017-10-24|DIGITALOCEAN-ASN, US
160.16.145.25|9370|160.16.128.0/17|JP|apnic|1992-06-10|SAKURA-B SAKURA Internet Inc., JP
167.248.3.18|15108|167.248.0.0/18|US|arin|2020-08-25|ALLO-COMM, US
167.71.218.243|14061|167.71.208.0/20|US|arin|2019-04-24|DIGITALOCEAN-ASN, US
167.71.219.179|14061|167.71.208.0/20|US|arin|2019-04-24|DIGITALOCEAN-ASN, US
167.71.81.215|14061|167.71.80.0/20|US|arin|2019-04-24|DIGITALOCEAN-ASN, US
167.71.98.172|14061|167.71.96.0/20|US|arin|2019-04-24|DIGITALOCEAN-ASN, US
168.119.86.22|24940|168.119.0.0/16|DE|ripencc|1994-04-05|HETZNER-AS, DE
173.208.195.202|32097|173.208.128.0/17|US|arin|2009-12-17|WII, US
173.239.33.85|27257|173.239.0.0/18|US|arin|2010-03-30|WEBAIR-INTERNET, US
176.9.143.74|24940|176.9.0.0/16|DE|ripencc|2011-05-17|HETZNER-AS, DE
176.99.2.207|197695|176.99.2.0/24|RU|ripencc|2012-06-26|AS-REG, RU
178.132.1.55|49981|178.132.0.0/21|NL|ripencc|2011-09-28|WORLDSTREAM, NL
178.39.30.209|6730|178.38.0.0/15|CH|ripencc|2010-02-02|SUNRISE, CH
178.79.83.93|3212|178.79.64.0/18|SI|ripencc|2010-05-07|TELEMACH Broadband Access & Carrier Services, SI
18.163.100.62|16509|18.163.0.0/16|US|arin|2019-10-07|AMAZON-02, US
18.182.44.36|16509|18.182.0.0/16|US|arin|2019-10-07|AMAZON-02, US
18.228.31.45|16509|18.228.0.0/16|US|arin|2019-10-07|AMAZON-02, US
184.145.10.114|577|184.145.0.0/16|CA|arin|2010-04-12|BACOM, CA
185.131.63.83|44489|185.131.60.0/22|CZ|ripencc|2015-12-15|STARNET, CZ
185.17.112.17|61135|185.17.112.0/24|TR|ripencc|2013-01-29|COMNET-DATACENTER-ISTANBUL, TR
185.176.220.175|39845|185.176.220.0/24|LV|ripencc|2016-11-08|LV-2CLOUD-ASN16, LV
185.227.75.176|25596|185.227.72.0/22|NL|ripencc|2017-10-23|CAMBRIUM-AS, NL
185.254.97.164|60548|185.254.96.0/22|DE|ripencc|2018-04-10|AVORO Avoro, DE
185.5.55.45|62282|185.5.52.0/22|LT|ripencc|2012-10-01|RACKRAY UAB Rakrejus, LT
186.61.150.86|22927|186.60.0.0/14|AR|lacnic|2009-07-16|Telefonica de Argentina, AR
188.166.249.211|14061|188.166.240.0/20|US|ripencc|2009-06-05|DIGITALOCEAN-ASN, US
193.169.254.222|197226|193.169.254.0/24|PL|ripencc|2018-05-08|SPRINT-SDC, PL
193.196.39.103|34878|193.196.32.0/20|DE|ripencc|1993-09-01|KIT Karlsruhe Institute of Technology, DE
195.154.214.157|12876|195.154.0.0/16|FR|ripencc|1996-08-27|Online SAS, FR
195.211.161.124|44341|195.211.161.0/24|RU|ripencc|2009-10-20|SEVONLINE, RU
195.91.239.8|8331|195.91.128.0/17|RU|ripencc|1997-08-01|RINET-AS Cronyx Plus Ltd, RU
197.245.7.235|11845|197.245.0.0/16|ZA|afrinic|2011-08-17|Vox-Telecom, ZA
2.153.62.104|12430|2.152.0.0/14|ES|ripencc|2010-11-03|VODAFONE_ES, ES
2.56.99.194|197540|2.56.96.0/22|DE|ripencc|2019-03-13|NETCUP-AS netcup GmbH, DE
20.73.167.33|8075|20.64.0.0/10|US|arin|2017-10-18|MICROSOFT-CORP-MSN-AS-BLOCK, US
200.150.118.140|14868|200.150.112.0/20|BR|lacnic|2011-07-28|COPEL Telecomunicacoes S.A., BR
200.7.175.250|27828|200.7.175.0/24|BO|lacnic|2006-03-07|UNIVERSIDAD MAYOR DE SAN ANDRES, BO
202.184.3.8|9930|202.184.0.0/18|MY|apnic|1995-10-09|TTNET-MY TIME dotCom Berhad No. 14, Jalan Majistret U1/26 Hicom Glenmarie Industrial Park 40150 Shah Alam Selangor, Malaysia, MY
204.111.241.195|4922|204.111.128.0/17|US|arin|1995-05-03|SHENTEL, US
206.188.144.184|3855|206.188.144.0/24|BM|arin|2005-07-19|LOGIC-3855, BM
207.253.27.72|395075|207.253.27.0/24|CA|arin|1996-11-22|AS-COPR, CA
209.6.145.252|6079|209.6.0.0/16|US|arin|1996-12-20|RCN-AS, US
213.189.185.198|12392|213.189.176.0/20|BE|ripencc|2001-10-10|ASBRUTELE VOO, BE
216.118.225.106|45753|216.118.225.0/24|HK|apnic|2002-07-29|NETSEC-HK NETSEC, HK
216.146.251.8|394778|216.146.250.0/23|US|arin|2003-01-17|NEMR, US
217.22.141.61|8758|217.22.128.0/20|CH|ripencc|2000-10-02|IWAY, CH
23.233.107.21|5645|23.233.104.0/21|CA|arin|2013-09-24|TEKSAVVY, CA
3.1.219.148|16509|3.0.0.0/15|US|arin|2017-12-20|AMAZON-02, US
3.115.12.116|16509|3.112.0.0/14|US|arin|2017-12-20|AMAZON-02, US
3.120.148.145|16509|3.120.0.0/14|US|arin|2017-12-20|AMAZON-02, US
3.23.227.175|16509|3.20.0.0/14|US|arin|2017-12-20|AMAZON-02, US
3.249.42.217|16509|3.248.0.0/13|US|arin|2018-06-25|AMAZON-02, US
3.83.239.210|14618|3.80.0.0/12|US|arin|2017-12-20|AMAZON-AES, US
34.105.247.173|15169|34.104.0.0/14|US|arin|2018-09-28|GOOGLE, US
34.64.249.186|139070|34.64.0.0/16|US|arin|2018-09-28|GOOGLE-AS-AP Google Asia Pacific Pte. Ltd., SG
34.73.101.96|15169|34.72.0.0/14|US|arin|2018-09-28|GOOGLE, US
34.75.215.83|15169|34.72.0.0/14|US|arin|2018-09-28|GOOGLE, US
34.78.48.104|15169|34.76.0.0/14|US|arin|2018-09-28|GOOGLE, US
34.82.170.246|15169|34.80.0.0/14|US|arin|2018-09-28|GOOGLE, US
35.199.107.158|15169|35.199.0.0/17|US|arin|2017-03-21|GOOGLE, US
35.228.240.175|15169|35.228.0.0/14|US|arin|2017-09-29|GOOGLE, US
38.95.174.111|174|38.0.0.0/8|US|arin|1991-04-16|COGENT-174, US
39.99.232.25|37963|39.96.0.0/14|CN|apnic|2011-04-05|CNNIC-ALIBABA-CN-NET-AP Hangzhou Alibaba Advertising Co.,Ltd., CN
46.105.117.212|16276|46.105.0.0/16|FR|ripencc|2010-11-29|OVH, FR
46.229.165.142|39572|46.229.160.0/20|NL|ripencc|2011-02-17|ADVANCEDHOSTERS-AS, NL
46.28.204.254|197988|46.28.200.0/21|CH|ripencc|2011-08-05|SOLARCOM, CH
47.108.156.129|37963|47.108.0.0/16|CN|apnic|1989-01-06|CNNIC-ALIBABA-CN-NET-AP Hangzhou Alibaba Advertising Co.,Ltd., CN
5.145.10.122|15600|5.145.0.0/19|CH|ripencc|2012-07-12|FINECOM Quickline AG, CH
5.188.56.57|49505|5.188.56.0/22|RU|ripencc|2012-08-09|SELECTEL, RU
5.9.115.210|24940|5.9.0.0/16|DE|ripencc|2012-04-25|HETZNER-AS, DE
50.125.234.132|20055|50.125.0.0/16|US|arin|2011-09-06|AS-WHOLESAIL, US
51.15.9.224|12876|51.15.0.0/17|FR|ripencc|1993-09-01|Online SAS, FR
51.38.34.42|16276|51.38.0.0/16|FR|ripencc|1993-09-01|OVH, FR
52.221.239.141|16509|52.220.0.0/15|US|arin|2015-09-02|AMAZON-02, US
52.57.201.88|16509|52.57.0.0/16|US|arin|1991-12-19|AMAZON-02, US
58.119.175.215|4847|58.118.0.0/15|CN|apnic|2005-05-11|CNIX-AP China Networks Inter-Exchange, CN
62.113.240.122|47447|62.113.192.0/18|DE|ripencc|2009-04-15|TTM, DE
64.201.87.233|21555|64.201.80.0/21|US|arin|2007-01-09|LHTC, US
66.31.57.67|7922|66.30.0.0/15|US|arin|2002-01-31|COMCAST-7922, US
67.55.3.200|33139|67.55.2.0/23|CA|arin|2005-06-17|CANACA-210, CA
68.168.176.51|10242|68.168.160.0/19|US|arin|2009-05-05|USINTERNET, US
69.13.39.34|54489|69.13.0.0/16|US|arin|2002-12-04|CORESPACE-DAL, US
69.13.39.39|54489|69.13.0.0/16|US|arin|2002-12-04|CORESPACE-DAL, US
69.64.51.41|30083|69.64.32.0/19|US|arin|2003-07-30|AS-30083-GO-DADDY-COM-LLC, US
69.7.124.146|30043|69.7.124.0/24|US|arin|2007-03-15|RBAND-AS30043, US
72.68.29.212|701|72.68.0.0/17|US|arin|2005-06-24|UUNET, US
73.49.178.35|7922|73.0.0.0/8|US|arin|2005-04-19|COMCAST-7922, US
76.10.221.49|11013|76.10.208.0/20|US|arin|2007-03-02|BLUE-AS, US
78.46.61.248|24940|78.46.0.0/15|DE|ripencc|2007-04-16|HETZNER-AS, DE
78.47.41.177|24940|78.46.0.0/15|DE|ripencc|2007-04-16|HETZNER-AS, DE
8.209.78.101|45102|8.209.64.0/19|SG|apnic|1992-12-01|CNNIC-ALIBABA-US-NET-AP Alibaba (US) Technology Co., Ltd., CN
81.36.43.175|3352|81.36.0.0/16|ES|ripencc|2002-02-15|TELEFONICA_DE_ESPANA, ES
82.195.237.253|1836|82.195.224.0/19|CH|ripencc|2003-10-27|GREEN green.ch AG Autonomous System, CH
82.38.182.164|5089|82.38.0.0/16|GB|ripencc|2003-01-31|NTL, GB
82.71.47.216|13037|82.68.0.0/14|GB|ripencc|2003-04-28|ZEN-AS Zen Internet - UK, GB
83.220.114.171|12912|83.220.96.0/19|PL|ripencc|2004-04-02|TM, PL
86.84.198.19|1136|86.80.0.0/12|NL|ripencc|2005-03-23|KPN KPN National, NL
89.248.240.57|41670|89.248.240.0/20|CZ|ripencc|2006-07-14|HKFREE-AS, CZ
90.251.56.32|5378|90.248.0.0/14|GB|ripencc|2006-09-08|Vodafone, GB
91.121.133.13|16276|91.121.0.0/16|FR|ripencc|2006-09-20|OVH, FR
91.193.237.116|42916|91.193.236.0/23|RU|ripencc|2007-05-09|IT-AS, RU
98.219.231.246|7922|98.192.0.0/10|US|arin|2007-04-20|COMCAST-7922, US
