# bitcoin dns seeds and whois results
IP Address|ASN|BGP Prefix|CC|Registry|Allocated|AS Name
125.236.215.133|4771|125.236.192.0/19|NZ|apnic|2005-10-20|SPARKNZ Spark New Zealand Trading Ltd., NZ
144.91.67.109|51167|144.91.66.0/23|DE|ripencc|1990-11-20|CONTABO, DE
154.8.232.212|45090|154.8.224.0/20|CN|apnic|1992-02-05|CNNIC-TENCENT-NET-AP Shenzhen Tencent Computer Systems Company Limited, CN
159.122.75.249|36351|159.122.64.0/18|US|ripencc|1992-04-14|SOFTLAYER, US
159.203.36.176|14061|159.203.32.0/20|US|arin|2015-08-10|DIGITALOCEAN-ASN, US
170.205.163.238|22646|170.205.163.0/24|US|arin|2019-01-29|HARCOM1, US
175.214.58.100|4766|175.208.0.0/13|KR|apnic|2010-01-27|KIXS-AS-KR Korea Telecom, KR
178.39.116.98|6730|178.38.0.0/15|CH|ripencc|2010-02-02|SUNRISE, CH
178.79.83.93|3212|178.79.64.0/18|SI|ripencc|2010-05-07|TELEMACH Broadband Access & Carrier Services, SI
185.143.45.39|55293|185.143.44.0/22|US|ripencc|2016-03-11|A2HOSTING, US
185.148.3.227|203003|185.148.0.0/22|FI|ripencc|2016-04-18|MAGNA-CAPAX, FI
185.150.162.111|34197|185.150.162.0/24|FR|ripencc|2016-05-04|SHRD-AS, FR
190.211.208.140|27833|190.211.208.0/21|AR|lacnic|2010-11-17|BVNET S.A., AR
192.69.53.70|11142|192.69.48.0/20|US|arin|2013-01-07|PRECISION-DATA-SOLUTIONS, US
194.49.60.74|12337|194.49.60.0/24|DE|ripencc|1994-03-29|NORIS-NETWORK IT Service Provider located in Nuernberg, Germany, DE
2.200.66.182|3209|2.200.0.0/14|DE|ripencc|2010-11-18|VODANET International IP-Backbone of Vodafone, DE
212.51.132.226|13030|212.51.128.0/20|CH|ripencc|2008-05-06|INIT7, CH
216.186.250.53|12083|216.186.192.0/18|US|arin|2006-03-20|WOW-INTERNET, US
221.103.244.50|17676|221.103.0.0/16|JP|apnic|2003-01-15|GIGAINFRA Softbank BB Corp., JP
221.191.93.2|4713|221.184.0.0/13|JP|apnic|2003-07-24|OCN NTT Communications Corporation, JP
23.175.0.200|395502|23.175.0.0/24|US|arin|2016-10-26|JCOLO, US
34.125.126.33|15169|34.124.0.0/14|US|arin|2018-09-28|GOOGLE, US
34.125.180.222|15169|34.124.0.0/14|US|arin|2018-09-28|GOOGLE, US
34.70.138.19|15169|34.68.0.0/14|US|arin|2018-09-28|GOOGLE, US
35.201.200.26|15169|35.200.0.0/14|US|arin|2017-03-21|GOOGLE, US
35.226.53.239|15169|35.224.0.0/14|US|arin|2017-09-29|GOOGLE, US
37.120.176.61|197540|37.120.160.0/19|DE|ripencc|2012-02-13|NETCUP-AS netcup GmbH, DE
37.34.249.83|42961|37.34.240.0/20|KW|ripencc|2012-01-03|GPRS-AS ZAIN, KW
45.77.68.254|20473|45.77.68.0/22|US|arin|2015-04-24|AS-CHOOPA, US
45.93.201.168|50340|45.93.201.0/24|RU|ripencc|2019-07-04|SELECTEL-MSK, RU
46.183.217.232|52048|46.183.217.0/24|BZ|ripencc|2010-12-10|DATACLUB, BZ
46.246.85.170|42708|46.246.0.0/17|SE|ripencc|2011-01-27|PORTLANE www.portlane.com, SE
5.79.75.28|60781|5.79.64.0/18|NL|ripencc|2012-06-14|LEASEWEB-NL-AMS-01 Netherlands, NL
51.15.17.53|12876|51.15.0.0/17|FR|ripencc|1993-09-01|Online SAS, FR
64.235.64.201|25769|64.235.64.0/19|US|arin|2002-09-11|GVTEL, US
65.21.51.100|24940|65.21.0.0/16|DE|ripencc|2001-09-26|HETZNER-AS, DE
66.117.10.85|17139|66.117.0.0/20|US|arin|2006-10-27|NETRANGE, US
72.176.80.169|11427|72.176.0.0/13|US|arin|2005-11-21|TWC-11427-TEXAS, US
74.116.30.12|31845|74.116.28.0/22|US|arin|2009-07-29|ISI COMMUNICATIONS, US
83.162.251.163|3265|83.160.0.0/14|NL|ripencc|2004-03-03|XS4ALL-NL Amsterdam, NL
85.13.237.23|31708|85.13.192.0/18|GB|ripencc|2005-04-05|COREIX-UK-AS London, Great Britain, GB
87.123.109.208|8881|87.123.96.0/20|DE|ripencc|2005-07-27|VERSATEL, DE
87.169.214.80|3320|87.128.0.0/10|DE|ripencc|2006-03-30|DTAG Internet service provider operations, DE
93.176.162.51|15704|93.176.160.0/20|ES|ripencc|2008-03-19|AS15704, ES
93.46.80.157|12874|93.46.0.0/15|IT|ripencc|2008-02-25|FASTWEB, IT
95.216.237.185|24940|95.216.0.0/16|DE|ripencc|2009-02-24|HETZNER-AS, DE
