# bitcoin dns seeds and whois results
IP Address|ASN|BGP Prefix|CC|Registry|Allocated|AS Name
103.57.202.84|136209|103.57.202.0/24|HK|apnic|2015-05-20|BN-AS-KR Korea Fast Networks, KR
104.244.79.131|53667|104.244.79.0/24|US|arin|2014-11-10|PONYNET, US
104.36.182.197|33438|104.36.180.0/22|US|arin|2014-06-05|HIGHWINDS2, US
104.52.169.164|7018|104.48.0.0/12|US|arin|2014-05-06|ATT-INTERNET4, US
107.181.189.34|46562|107.181.189.0/24|US|arin|2014-02-14|PERFORMIVE, US
107.191.33.82|20473|107.191.32.0/21|US|arin|2014-04-25|AS-CHOOPA, US
108.200.255.200|7018|108.192.0.0/10|US|arin|2011-01-12|ATT-INTERNET4, US
109.236.94.177|49981|109.236.80.0/20|NL|ripencc|2009-12-04|WORLDSTREAM, NL
113.215.160.104|24139|113.215.160.0/19|CN|apnic|2008-12-08|WASUHZ Huashu media&Network Limited, CN
116.86.12.101|55430|116.86.0.0/18|SG|apnic|2007-05-18|STARHUB-NGNBN Starhub Ltd, SG
121.148.7.27|4766|121.144.0.0/13|KR|apnic|2006-04-07|KIXS-AS-KR Korea Telecom, KR
134.122.26.164|14061|134.122.16.0/20|US|arin|2019-09-06|DIGITALOCEAN-ASN, US
135.181.22.136|24940|135.181.0.0/16|DE|ripencc|1996-04-30|HETZNER-AS, DE
147.32.127.195|2852|147.32.0.0/15|CZ|ripencc|1991-06-18|CESNET2, CZ
151.252.193.245|197897|151.252.192.0/22|BG|ripencc|2012-08-23|PETKOM, BG
155.4.26.146|8473|155.4.0.0/16|NO|ripencc|1991-10-30|BAHNHOF http://www.bahnhof.net/, SE
159.65.107.84|14061|159.65.96.0/20|US|arin|2017-10-24|DIGITALOCEAN-ASN, US
159.89.18.157|14061|159.89.16.0/20|US|arin|2017-07-07|DIGITALOCEAN-ASN, US
160.16.110.6|9370|160.16.0.0/17|JP|apnic|1992-06-10|SAKURA-B SAKURA Internet Inc., JP
162.0.211.61|22612|162.0.211.0/24|US|arin|2020-09-03|NAMECHEAP-NET, US
162.214.103.187|46606|162.214.96.0/21|US|arin|2013-05-22|UNIFIEDLAYER-AS-1, US
164.68.123.197|51167|164.68.122.0/23|DE|ripencc|1992-12-17|CONTABO, DE
173.164.210.49|7922|173.160.0.0/13|US|arin|2009-04-10|COMCAST-7922, US
176.9.101.91|24940|176.9.0.0/16|DE|ripencc|2011-05-17|HETZNER-AS, DE
178.132.2.246|49981|178.132.0.0/21|NL|ripencc|2011-09-28|WORLDSTREAM, NL
178.39.30.209|6730|178.38.0.0/15|CH|ripencc|2010-02-02|SUNRISE, CH
178.78.243.147|33885|178.78.192.0/18|SE|ripencc|2010-04-28|OWNIT Katarinavagen 15, SE
178.79.83.93|3212|178.79.64.0/18|SI|ripencc|2010-05-07|TELEMACH Broadband Access & Carrier Services, SI
18.163.2.153|16509|18.163.0.0/16|US|arin|2019-10-07|AMAZON-02, US
18.166.71.221|16509|18.166.0.0/15|US|arin|2019-10-07|AMAZON-02, US
180.175.106.10|4812|180.175.0.0/16|CN|apnic|2009-08-21|CHINANET-SH-AP China Telecom (Group), CN
185.107.83.55|43350|185.107.80.0/22|NL|ripencc|2015-07-03|NFORCE, NL
185.128.246.164|51184|185.128.244.0/22|AT|ripencc|2015-11-27|FONIRA, AT
185.17.112.17|61135|185.17.112.0/24|TR|ripencc|2013-01-29|COMNET-DATACENTER-ISTANBUL, TR
185.217.241.142|197304|185.217.241.0/24|BG|ripencc|2017-08-17|DILISGRUP, BG
185.244.148.87|60117|185.244.148.0/24|AE|ripencc|2018-02-02|HS, AE
188.155.94.34|6730|188.154.0.0/15|CH|ripencc|2009-05-08|SUNRISE, CH
188.166.102.232|14061|188.166.64.0/18|US|ripencc|2009-06-05|DIGITALOCEAN-ASN, US
189.132.213.13|8151|189.132.212.0/23|MX|lacnic|2006-05-12|Uninet S.A. de C.V., MX
195.211.161.124|44341|195.211.161.0/24|RU|ripencc|2009-10-20|SEVONLINE, RU
2.200.165.2|3209|2.200.0.0/14|DE|ripencc|2010-11-18|VODANET International IP-Backbone of Vodafone, DE
200.7.175.250|27828|200.7.175.0/24|BO|lacnic|2006-03-07|UNIVERSIDAD MAYOR DE SAN ANDRES, BO
202.187.9.117|9930|202.186.0.0/15|MY|apnic|1996-10-29|TTNET-MY TIME dotCom Berhad No. 14, Jalan Majistret U1/26 Hicom Glenmarie Industrial Park 40150 Shah Alam Selangor, Malaysia, MY
203.94.33.112|55850|203.94.32.0/19|NZ|apnic|2004-12-22|TRUSTPOWERLTD-AS-AP TrustPower Ltd, NZ
206.189.16.199|14061|206.189.16.0/20|US|arin|1995-11-15|DIGITALOCEAN-ASN, US
207.182.154.178|10297|207.182.128.0/19|US|arin|2008-03-03|ENET-2, US
212.51.144.42|13030|212.51.144.0/20|CH|ripencc|2008-05-06|INIT7, CH
212.83.35.11|47447|212.83.32.0/19|DE|ripencc|2008-06-24|TTM, DE
217.64.47.138|39324|217.64.32.0/20|FI|ripencc|2010-05-12|MEDIAM-AS, FI
24.116.153.115|11492|24.116.153.0/24|US|arin|1996-09-25|CABLEONE, US
3.127.219.132|16509|3.124.0.0/14|US|arin|2017-12-20|AMAZON-02, US
3.87.177.152|14618|3.80.0.0/12|US|arin|2017-12-20|AMAZON-AES, US
31.42.184.85|30860|31.42.184.0/23|UA|ripencc|2011-02-23|YURTEH-AS, UA
34.121.18.63|15169|34.120.0.0/14|US|arin|2018-09-28|GOOGLE, US
34.122.17.53|15169|34.120.0.0/14|US|arin|2018-09-28|GOOGLE, US
34.123.84.183|15169|34.120.0.0/14|US|arin|2018-09-28|GOOGLE, US
34.125.77.92|15169|34.124.0.0/14|US|arin|2018-09-28|GOOGLE, US
34.78.180.55|15169|34.76.0.0/14|US|arin|2018-09-28|GOOGLE, US
34.97.22.229|15169|34.97.0.0/17|US|arin|2018-09-28|GOOGLE, US
35.196.178.88|15169|35.196.0.0/15|US|arin|2017-03-21|GOOGLE, US
35.203.15.57|15169|35.200.0.0/14|US|arin|2017-03-21|GOOGLE, US
35.204.114.205|15169|35.204.0.0/15|US|arin|2017-03-21|GOOGLE, US
35.228.95.22|15169|35.228.0.0/14|US|arin|2017-09-29|GOOGLE, US
35.231.217.24|15169|35.228.0.0/14|US|arin|2017-09-29|GOOGLE, US
35.236.40.20|15169|35.236.0.0/14|US|arin|2017-09-29|GOOGLE, US
35.245.143.50|15169|35.244.0.0/14|US|arin|2017-09-29|GOOGLE, US
45.33.49.177|63949|45.33.49.0/24|US|arin|2015-03-20|LINODE-AP Linode, LLC, US
45.43.110.54|26827|45.43.96.0/20|US|arin|2015-03-30|EPBTELECOM, US
45.63.4.71|20473|45.63.0.0/20|US|arin|2015-01-02|AS-CHOOPA, US
45.85.48.58|208016|45.85.48.0/22|DE|ripencc|2019-06-04|TINC-AS, DE
46.229.238.187|29405|46.229.224.0/20|SK|ripencc|2011-02-21|VNET-AS, SK
46.4.106.110|24940|46.4.0.0/16|DE|ripencc|2010-08-19|HETZNER-AS, DE
47.187.1.5|5650|47.184.0.0/14|US|arin|2015-08-28|FRONTIER-FRTR, US
47.214.217.54|19108|47.214.192.0/18|US|arin|2015-09-08|SUDDENLINK-COMMUNICATIONS, US
47.72.89.73|9500|47.72.0.0/16|US|arin|2012-05-15|VODAFONE-TRANSIT-AS Vodafone NZ Ltd., NZ
5.14.14.58|8708|5.12.0.0/14|RO|ripencc|2012-04-27|RCS-RDS 73-75 Dr. Staicovici, RO
5.188.56.52|49505|5.188.56.0/22|RU|ripencc|2012-08-09|SELECTEL, RU
5.188.56.55|49505|5.188.56.0/22|RU|ripencc|2012-08-09|SELECTEL, RU
5.8.18.31|202425|5.8.18.0/24|RU|ripencc|2012-04-25|INT-NETWORK, SC
50.193.202.81|7922|50.128.0.0/9|US|arin|2010-10-21|COMCAST-7922, US
50.245.85.74|7922|50.128.0.0/9|US|arin|2010-10-21|COMCAST-7922, US
50.98.46.230|852|50.98.0.0/16|CA|arin|2011-03-31|TELUS Communications, CA
52.30.59.5|16509|52.30.0.0/15|US|arin|1991-12-19|AMAZON-02, US
62.113.240.122|47447|62.113.192.0/18|DE|ripencc|2009-04-15|TTM, DE
66.194.38.42|35863|66.194.38.0/24|US|arin|2001-10-25|TELCO214US1, US
66.91.119.129|20001|66.91.0.0/16|US|arin|2001-03-29|TWC-20001-PACWEST, US
66.96.199.249|56300|66.96.199.0/24|SG|apnic|2001-11-01|MYREPUBLIC-SG MyRepublic Ltd., SG
69.126.53.252|6128|69.124.0.0/14|US|arin|2004-01-15|CABLE-NET-1, US
69.13.39.39|54489|69.13.0.0/16|US|arin|2002-12-04|CORESPACE-DAL, US
72.68.42.62|701|72.68.0.0/17|US|arin|2005-06-24|UUNET, US
72.80.131.145|701|72.80.0.0/16|US|arin|2005-06-24|UUNET, US
73.240.62.20|7922|73.0.0.0/8|US|arin|2005-04-19|COMCAST-7922, US
75.118.243.0|12083|75.118.240.0/22|US|arin|2006-11-02|WOW-INTERNET, US
75.97.59.1|3737|75.97.0.0/16|US|arin|2009-01-30|AS-PTD, US
78.47.41.177|24940|78.46.0.0/15|DE|ripencc|2007-04-16|HETZNER-AS, DE
79.212.69.48|3320|79.192.0.0/10|DE|ripencc|2007-06-06|DTAG Internet service provider operations, DE
81.177.196.122|200982|81.177.196.0/23|RU|ripencc|2003-01-15|ZT-TOMSK-AS, RU
82.131.84.26|2586|82.131.0.0/17|EE|ripencc|2003-07-29|UNINET-AS Sopruse pst 145, EE
83.150.56.145|8758|83.150.0.0/18|CH|ripencc|2004-03-16|IWAY, CH
83.220.114.171|12912|83.220.96.0/19|PL|ripencc|2004-04-02|TM, PL
84.17.54.71|60068|84.17.54.0/23|GB|ripencc|2004-07-23|CDN77 (^_^)/, GB
85.214.238.3|6724|85.214.0.0/15|DE|ripencc|2005-02-24|STRATO STRATO AG, DE
85.228.232.171|2119|85.224.0.0/13|SE|ripencc|2004-12-17|TELENOR-NEXTEL Telenor Norge AS, NO
86.89.77.44|1136|86.80.0.0/12|NL|ripencc|2005-03-23|KPN KPN National, NL
88.198.207.38|24940|88.198.0.0/16|DE|ripencc|2005-12-27|HETZNER-AS, DE
88.97.99.82|13037|88.96.0.0/15|GB|ripencc|2005-08-03|ZEN-AS Zen Internet - UK, GB
89.164.167.35|13046|89.164.128.0/18|HR|ripencc|2006-05-30|ASN-ISKON HEP, HR
89.247.100.120|8881|89.247.96.0/20|DE|ripencc|2006-05-04|VERSATEL, DE
91.121.91.137|16276|91.121.0.0/16|FR|ripencc|2006-09-20|OVH, FR
92.195.68.118|20676|92.192.0.0/13|DE|ripencc|2007-10-17|PLUSNET *****************, DE
92.43.165.73|25455|92.43.164.0/23|MD|ripencc|2008-01-17|GUARDFOX-AS, MD
93.115.28.92|16125|93.115.24.0/21|LT|ripencc|2007-12-21|CHERRYSERVERS1-AS, LT
93.190.140.83|49981|93.190.140.0/22|NL|ripencc|2008-05-16|WORLDSTREAM, NL
93.77.239.137|25229|93.77.224.0/19|UA|ripencc|2008-04-04|VOLIA-AS, UA
94.242.213.28|5577|94.242.213.0/24|LU|ripencc|2008-10-21|ROOT, LU
95.161.12.45|39598|95.161.0.0/18|AG|ripencc|2008-12-23|TIERA-AS, AG
95.216.245.124|24940|95.216.0.0/16|DE|ripencc|2009-02-24|HETZNER-AS, DE
98.11.3.136|11351|98.10.0.0/15|US|arin|2007-01-29|TWC-11351-NORTHEAST, US
98.35.192.11|7922|98.32.0.0/11|US|arin|2007-06-06|COMCAST-7922, US
