# bitcoin dns seeds and whois results
IP Address|ASN|BGP Prefix|CC|Registry|Allocated|AS Name
104.196.231.248|15169|104.196.224.0/19|US|arin|2014-08-27|GOOGLE, US
104.218.51.82|19318|104.218.48.0/21|US|arin|2014-10-02|IS-AS-1, US
108.7.47.223|701|108.7.0.0/16|US|arin|2009-06-05|UUNET, US
109.206.168.240|50245|109.206.160.0/19|NL|ripencc|2010-01-22|SERVEREL-AS, NL
115.68.73.150|38700|115.68.0.0/17|KR|apnic|2008-07-15|SMILESERV-AS-KR SMILESERV, KR
13.229.150.245|16509|13.228.0.0/15|US|arin|2019-10-01|AMAZON-02, US
134.122.38.34|14061|134.122.32.0/20|US|arin|2019-09-06|DIGITALOCEAN-ASN, US
136.243.36.82|24940|136.243.0.0/16|DE|ripencc|2004-04-14|HETZNER-AS, DE
157.230.180.187|14061|157.230.176.0/20|US|arin|2018-08-22|DIGITALOCEAN-ASN, US
159.69.167.252|24940|159.69.0.0/16|DE|ripencc|1992-03-13|HETZNER-AS, DE
161.35.23.222|14061|161.35.16.0/20|US|arin|2019-07-30|DIGITALOCEAN-ASN, US
162.156.219.13|852|162.156.192.0/18|CA|arin|2013-03-07|TELUS Communications, CA
162.214.103.187|46606|162.214.96.0/21|US|arin|2013-05-22|UNIFIEDLAYER-AS-1, US
168.119.249.19|24940|168.119.0.0/16|DE|ripencc|1994-04-05|HETZNER-AS, DE
173.212.221.13|51167|173.212.192.0/19|DE|ripencc|2009-10-26|CONTABO, DE
174.20.64.202|209|174.20.0.0/16|US|arin|2009-02-17|CENTURYLINK-US-LEGACY-QWEST, US
176.196.98.66|39927|176.196.0.0/15|RU|ripencc|2011-07-15|ELIGHT-AS, RU
178.79.83.93|3212|178.79.64.0/18|SI|ripencc|2010-05-07|TELEMACH Broadband Access & Carrier Services, SI
18.132.37.244|16509|18.132.0.0/14|US|arin|2019-10-07|AMAZON-02, US
18.220.157.153|16509|18.220.0.0/14|US|arin|2019-10-07|AMAZON-02, US
185.128.246.164|51184|185.128.244.0/22|AT|ripencc|2015-11-27|FONIRA, AT
185.35.35.39|35467|185.35.34.0/23|NL|ripencc|2013-09-13|DDF-AS, NL
198.54.113.204|22612|198.54.113.0/24|US|arin|2015-11-13|NAMECHEAP-NET, US
202.107.219.130|4134|202.107.192.0/18|CN|apnic|1998-08-17|CHINANET-BACKBONE No.31,Jin-rong Street, CN
209.97.179.21|14061|209.97.176.0/20|US|arin|1997-07-03|DIGITALOCEAN-ASN, US
210.179.175.208|4766|210.179.0.0/16|KR|apnic|1998-11-24|KIXS-AS-KR Korea Telecom, KR
34.86.129.53|15169|34.84.0.0/14|US|arin|2018-09-28|GOOGLE, US
35.228.132.48|15169|35.228.0.0/14|US|arin|2017-09-29|GOOGLE, US
46.229.238.187|29405|46.229.224.0/20|SK|ripencc|2011-02-21|VNET-AS, SK
46.23.87.218|3265|46.23.80.0/20|NL|ripencc|2010-12-02|XS4ALL-NL Amsterdam, NL
5.172.132.200|15600|5.172.128.0/20|CH|ripencc|2012-07-30|FINECOM Quickline AG, CH
51.15.157.154|12876|51.15.0.0/16|FR|ripencc|1993-09-01|Online SAS, FR
51.154.4.160|15796|51.154.0.0/16|CH|ripencc|1993-09-01|SALT-, CH
51.38.144.116|16276|51.38.0.0/16|FR|ripencc|1993-09-01|OVH, FR
54.198.19.34|14618|54.198.0.0/16|US|arin|2014-10-23|AMAZON-AES, US
66.165.225.130|29802|66.165.224.0/21|US|arin|2017-05-17|HVC-AS, US
78.46.99.198|24940|78.46.0.0/15|DE|ripencc|2007-04-16|HETZNER-AS, DE
83.240.15.151|31246|83.240.0.0/17|CZ|ripencc|2004-03-11|NETBOX-AS NETBOX Autonomous system, CZ
86.127.128.214|8708|86.120.0.0/13|RO|ripencc|2005-03-16|RCS-RDS 73-75 Dr. Staicovici, RO
86.52.44.102|197288|86.52.0.0/16|DK|ripencc|2005-05-04|STOFANET, DK
88.82.189.49|39178|88.82.188.0/22|RU|ripencc|2005-12-22|OPTILINK-AS, RU
91.214.70.63|49542|91.214.68.0/22|RU|ripencc|2009-06-29|AS-ARTPLANET, RU
92.19.249.3|13285|92.18.0.0/15|GB|ripencc|2007-06-28|OPALTELECOM-AS TalkTalk Communications Limited, GB
92.247.155.133|8717|92.247.0.0/16|BG|ripencc|2008-04-18|A1, BG
97.84.96.62|20115|97.84.64.0/18|US|arin|2007-03-21|CHARTER-20115, US
97.91.153.64|20115|97.91.128.0/18|US|arin|2007-03-21|CHARTER-20115, US
