# bitcoin dns seeds and whois results
IP Address|ASN|BGP Prefix|CC|Registry|Allocated|AS Name
1.0.215.77|23969|1.0.215.0/24|TH|apnic|2011-04-08|TOT-NET TOT Public Company Limited, TH
103.99.170.220|54415|103.99.170.0/24|JP|apnic|2017-08-28|WIZ-JP-AS-AP WIZ K.K., JP
104.166.89.123|46261|104.166.64.0/19|US|arin|2014-08-12|QUICKPACKET, US
106.54.171.167|45090|106.54.128.0/18|CN|apnic|2011-04-06|CNNIC-TENCENT-NET-AP Shenzhen Tencent Computer Systems Company Limited, CN
109.248.206.13|203493|109.248.206.0/23|CZ|ripencc|2009-11-27|YACOLO-AS, RU
155.133.2.5|61056|155.133.2.0/24|PL|ripencc|1991-11-07|ASN-MULTI-NET-EU, PL
159.100.255.18|61098|159.100.248.0/21|CH|ripencc|1992-03-31|EXOSCALE, CH
159.2.165.130|855|159.2.160.0/20|CA|arin|2016-11-02|CANET-ASN-4, CA
162.209.88.174|19994|162.209.80.0/20|US|arin|2013-03-26|RACKSPACE, US
176.9.140.115|24940|176.9.0.0/16|DE|ripencc|2011-05-17|HETZNER-AS, DE
178.252.123.24|42893|178.252.64.0/18|RU|ripencc|2010-05-26|NWLINK-AS, RU
178.79.83.93|3212|178.79.64.0/18|SI|ripencc|2010-05-07|TELEMACH Broadband Access & Carrier Services, SI
185.25.48.114|61272|185.25.48.0/22|LT|ripencc|2013-04-29|IST-AS, LT
185.66.180.33|201375|185.66.180.0/24|GB|ripencc|2014-08-08|NG-MKDC0, GB
186.33.167.11|27947|186.33.160.0/19|EC|lacnic|2011-12-07|Telconet S.A, EC
204.12.207.91|32097|204.12.192.0/18|US|arin|2009-06-08|WII, US
212.139.243.234|9105|212.139.128.0/17|GB|ripencc|1999-03-26|TISCALI-UK TalkTalk Communications Limited, GB
213.136.78.176|51167|213.136.78.0/23|DE|ripencc|2000-02-28|CONTABO, DE
217.119.121.123|31117|217.119.112.0/20|SK|ripencc|2004-03-02|ENERGOTEL-AS, SK
27.102.113.188|45996|27.102.113.0/24|KR|apnic|2010-05-27|DAOU-AS-KR DAOU TECHNOLOGY, KR
3.115.12.116|16509|3.112.0.0/14|US|arin|2017-12-20|AMAZON-02, US
3.35.168.137|16509|3.34.0.0/15|US|arin|2017-12-20|AMAZON-02, US
3.87.177.152|14618|3.80.0.0/12|US|arin|2017-12-20|AMAZON-AES, US
3.96.170.113|16509|3.96.0.0/15|US|arin|2017-12-20|AMAZON-02, US
3.97.201.205|16509|3.96.0.0/15|US|arin|2017-12-20|AMAZON-02, US
34.232.63.88|14618|34.224.0.0/12|US|arin|2016-09-12|AMAZON-AES, US
34.70.138.19|15169|34.68.0.0/14|US|arin|2018-09-28|GOOGLE, US
35.180.33.119|16509|35.180.0.0/16|US|arin|2016-08-09|AMAZON-02, US
46.229.238.187|29405|46.229.224.0/20|SK|ripencc|2011-02-21|VNET-AS, SK
46.4.103.82|24940|46.4.0.0/16|DE|ripencc|2010-08-19|HETZNER-AS, DE
47.152.139.184|5650|47.152.0.0/14|US|arin|2015-08-28|FRONTIER-FRTR, US
5.133.65.82|15440|5.133.65.0/24|LT|ripencc|2018-11-09|BALTNETA Customers AS, LT
50.45.128.28|27017|50.45.128.0/17|US|arin|2010-09-24|ZIPLY-FIBER-LEGACY-ASN, US
51.75.147.82|16276|51.75.0.0/16|FR|ripencc|1993-09-01|OVH, FR
54.199.164.163|16509|54.199.128.0/17|US|arin|2014-10-23|AMAZON-02, US
62.112.9.73|49981|62.112.8.0/22|NL|ripencc|1997-05-02|WORLDSTREAM, NL
66.208.64.128|10352|66.208.64.0/20|US|arin|2006-04-17|WCTC, US
78.30.48.166|15704|78.30.48.0/20|ES|ripencc|2007-10-03|AS15704, ES
79.146.21.232|3352|79.146.0.0/16|ES|ripencc|2007-06-07|TELEFONICA_DE_ESPANA, ES
80.195.198.125|5089|80.194.0.0/15|GB|ripencc|2001-09-26|NTL, GB
84.115.136.45|6830|84.114.0.0/15|AT|ripencc|2004-04-07|LIBERTYGLOBAL Liberty Global (formerly UPC Broadband Holding, aka AORTA), NL
84.80.143.197|1136|84.80.0.0/13|NL|ripencc|2004-03-17|KPN KPN National, NL
85.9.3.35|5606|85.9.0.0/19|RO|ripencc|2005-02-11|GTS-BACKBONE GTS Telecom, RO
87.65.195.214|5432|87.64.0.0/14|BE|ripencc|2005-05-19|PROXIMUS-ISP-AS, BE
91.1.222.216|3320|91.0.0.0/10|DE|ripencc|2006-07-03|DTAG Internet service provider operations, DE
94.19.128.204|35807|94.19.0.0/16|RU|ripencc|2008-07-03|SKYNET-SPB-AS, RU
