# bitcoin dns seeds and whois results
IP Address|ASN|BGP Prefix|CC|Registry|Allocated|AS Name
103.137.94.237|136334|103.137.94.0/24|IN|apnic|2019-03-25|VNPL-AS Vortex Netsol Private Limited, IN
103.163.225.51|141780|103.163.225.0/24|TH|apnic|2021-03-05|CGCL-AS-AP CHANNEL G COMPANY LIMITED, TH
103.99.168.150|54415|103.99.168.0/24|JP|apnic|2017-08-28|WIZ-JP-AS-AP WIZ K.K., JP
122.148.135.234|9443|122.148.0.0/16|AU|apnic|2007-01-05|VOCUS-RETAIL-AU Vocus Retail, AU
13.124.74.157|16509|13.124.0.0/16|US|arin|2016-08-09|AMAZON-02, US
13.231.85.192|16509|13.230.0.0/15|US|arin|2019-10-01|AMAZON-02, US
13.55.244.216|16509|13.54.0.0/15|US|arin|2020-08-05|AMAZON-02, US
13.79.6.157|8075|13.64.0.0/11|US|arin|2015-03-26|MICROSOFT-CORP-MSN-AS-BLOCK, US
13.92.47.137|8075|13.64.0.0/11|US|arin|2015-03-26|MICROSOFT-CORP-MSN-AS-BLOCK, US
134.209.215.20|14061|134.209.208.0/20|US|arin|2018-10-18|DIGITALOCEAN-ASN, US
15.206.84.150|16509|15.206.0.0/15|US|arin|2019-03-26|AMAZON-02, US
155.4.26.146|8473|155.4.0.0/16|NO|ripencc|1991-10-30|BAHNHOF http://www.bahnhof.net/, SE
167.71.162.228|14061|167.71.160.0/20|US|arin|2019-04-24|DIGITALOCEAN-ASN, US
176.126.167.10|59684|176.126.167.0/24|KG|ripencc|2012-09-14|ASHOSTER, KG
176.9.84.218|24940|176.9.0.0/16|DE|ripencc|2011-05-17|HETZNER-AS, DE
178.132.2.246|49981|178.132.0.0/21|NL|ripencc|2011-09-28|WORLDSTREAM, NL
178.79.83.93|3212|178.79.64.0/18|SI|ripencc|2010-05-07|TELEMACH Broadband Access & Carrier Services, SI
18.222.167.188|16509|18.220.0.0/14|US|arin|2019-10-07|AMAZON-02, US
183.178.13.210|9269|183.178.0.0/18|HK|apnic|2009-11-26|HKBN-AS-AP Hong Kong Broadband Network Ltd., HK
184.160.82.12|5769|184.160.64.0/18|CA|arin|2010-06-21|VIDEOTRON, CA
185.132.133.160|49981|185.132.132.0/22|NL|ripencc|2015-12-22|WORLDSTREAM, NL
185.169.243.125|60016|185.169.240.0/22|CH|ripencc|2016-09-27|ASFS3, CH
185.198.16.16|62031|185.198.16.0/23|PL|ripencc|2017-04-05|SOWNET-AS, PL
185.198.182.99|201105|185.198.180.0/22|ES|ripencc|2017-04-10|INTERSUR, ES
185.217.241.142|197304|185.217.241.0/24|BG|ripencc|2017-08-17|DILISGRUP, BG
185.244.148.87|60117|185.244.148.0/24|AE|ripencc|2018-02-02|HS, AE
185.244.217.172|204601|185.244.217.0/24|NL|ripencc|2018-02-05|ON-LINE-DATA Server location - Netherlands, Dronten, NL
185.85.3.140|20546|185.85.3.0/24|DE|ripencc|2015-01-21|SOPRADO-ANY, DE
193.106.30.90|50297|193.106.28.0/22|UA|ripencc|2009-11-30|INFIUM, UA
193.33.151.21|42729|193.33.150.0/23|AT|ripencc|2007-04-03|FFGRAZ-NET Wireless community ad-hoc mesh network, AT
194.147.113.201|21232|194.147.113.0/24|CH|ripencc|1993-09-01|GGAMAUR, CH
195.134.168.164|39647|195.134.168.0/21|NL|ripencc|2012-03-07|REDHOSTING-AS, NL
195.56.63.10|5588|195.56.0.0/16|HU|ripencc|1996-04-26|GTSCE GTS Central Europe / Antel Germany, CZ
199.247.29.89|20473|199.247.24.0/21|US|ripencc|1996-04-09|AS-CHOOPA, US
199.48.94.175|30600|199.48.94.0/23|US|arin|2016-12-19|AS-CMN, US
199.68.199.19|1426|199.68.196.0/22|US|arin|2011-01-10|LIGHTWAVENET, US
201.212.29.93|7303|201.212.0.0/16|AR|lacnic|2005-08-09|Telecom Argentina S.A., AR
202.73.14.205|55720|202.73.14.0/24|MY|apnic|2004-12-03|GIGABIT-MY Gigabit Hosting Sdn Bhd, MY
204.132.112.181|397672|204.132.112.0/24|US|arin|1994-08-26|AS-WYOMINGWIRELESS, US
206.123.128.176|396362|206.123.128.0/24|US|arin|2015-03-09|LEASEWEB-USA-NYC-11, US
206.189.16.199|14061|206.189.16.0/20|US|arin|1995-11-15|DIGITALOCEAN-ASN, US
207.182.154.178|10297|207.182.128.0/19|US|arin|2008-03-03|ENET-2, US
207.199.215.121|5056|207.199.215.0/24|US|arin|2005-02-25|AUREON-5056, US
208.73.156.62|40447|208.73.156.0/22|US|arin|2017-02-08|SKYHAWK-GROUP, US
209.6.156.54|6079|209.6.0.0/16|US|arin|1996-12-20|RCN-AS, US
213.174.156.71|39572|213.174.128.0/19|NL|ripencc|2008-01-17|ADVANCEDHOSTERS-AS, NL
23.233.55.92|5645|23.233.0.0/17|CA|arin|2013-09-24|TEKSAVVY, CA
24.118.228.102|7922|24.118.0.0/16|US|arin|2001-09-17|COMCAST-7922, US
24.121.34.166|19108|24.121.0.0/17|US|arin|2001-09-20|SUDDENLINK-COMMUNICATIONS, US
24.141.129.125|7992|24.141.0.0/16|CA|arin|1999-05-03|COGECOWAVE, CA
24.241.102.26|20115|24.241.96.0/20|US|arin|1999-12-17|CHARTER-20115, US
27.109.176.81|4609|27.109.160.0/19|MO|apnic|2010-06-10|CTM-MO Companhia de Telecomunicacoes de Macau SARL, MO
3.87.177.152|14618|3.80.0.0/12|US|arin|2017-12-20|AMAZON-AES, US
31.21.8.32|50266|31.21.0.0/16|NL|ripencc|2011-03-25|TMOBILE-THUIS, NL
34.121.191.59|15169|34.120.0.0/14|US|arin|2018-09-28|GOOGLE, US
34.125.157.90|15169|34.124.0.0/14|US|arin|2018-09-28|GOOGLE, US
34.193.35.86|14618|34.192.0.0/12|US|arin|2016-09-12|AMAZON-AES, US
34.227.68.216|14618|34.224.0.0/12|US|arin|2016-09-12|AMAZON-AES, US
35.181.8.232|16509|35.181.0.0/16|US|arin|2016-08-09|AMAZON-02, US
35.199.29.207|15169|35.199.0.0/17|US|arin|2017-03-21|GOOGLE, US
35.232.112.59|15169|35.232.0.0/14|US|arin|2017-09-29|GOOGLE, US
35.245.230.216|15169|35.244.0.0/14|US|arin|2017-09-29|GOOGLE, US
46.146.248.89|12768|46.146.0.0/16|RU|ripencc|2010-10-13|ER-TELECOM-AS, RU
46.229.170.218|39572|46.229.160.0/20|NL|ripencc|2011-02-17|ADVANCEDHOSTERS-AS, NL
46.229.238.187|29405|46.229.224.0/20|SK|ripencc|2011-02-21|VNET-AS, SK
46.59.13.35|8473|46.59.0.0/17|SE|ripencc|2010-10-19|BAHNHOF http://www.bahnhof.net/, SE
47.242.223.170|45102|47.242.0.0/16|US|arin|2016-04-15|CNNIC-ALIBABA-US-NET-AP Alibaba (US) Technology Co., Ltd., CN
47.95.32.92|37963|47.94.0.0/15|CN|apnic|1989-01-06|CNNIC-ALIBABA-CN-NET-AP Hangzhou Alibaba Advertising Co.,Ltd., CN
5.14.14.58|8708|5.12.0.0/14|RO|ripencc|2012-04-27|RCS-RDS 73-75 Dr. Staicovici, RO
50.2.13.164|62904|50.2.12.0/23|US|arin|2010-06-25|EONIX-COMMUNICATIONS-ASBLOCK-62904, US
52.30.59.5|16509|52.30.0.0/15|US|arin|1991-12-19|AMAZON-02, US
54.241.144.222|16509|54.241.128.0/19|US|arin|2012-03-01|AMAZON-02, US
58.138.8.170|2497|58.138.0.0/17|JP|apnic|2005-05-24|IIJ Internet Initiative Japan Inc., JP
58.185.69.243|3758|58.185.0.0/16|SG|apnic|2005-06-30|SINGNET SingNet, SG
62.82.113.60|12357|62.82.113.0/24|ES|ripencc|1999-05-04|COMUNITEL SPAIN, ES
64.111.121.119|26347|64.111.96.0/19|US|arin|2005-03-07|DREAMHOST-AS, US
64.33.179.212|11796|64.33.128.0/18|US|arin|2000-02-02|AIRSTREAMCOMM-NET, US
69.61.103.44|22653|69.61.0.0/17|US|arin|2003-07-08|GLOBALCOMPASS, US
70.134.63.129|7018|70.134.0.0/15|US|arin|2005-04-15|ATT-INTERNET4, US
70.59.87.42|209|70.59.64.0/19|US|arin|2004-06-18|CENTURYLINK-US-LEGACY-QWEST, US
72.50.240.124|393238|72.50.240.0/24|US|arin|2008-03-24|IMONC, US
76.10.221.49|11013|76.10.208.0/20|US|arin|2007-03-02|BLUE-AS, US
77.52.178.235|21497|77.52.128.0/17|UA|ripencc|2007-01-17|UMC-AS, UA
78.20.192.90|6848|78.20.0.0/15|BE|ripencc|2007-05-14|TELENET-AS, BE
78.47.41.177|24940|78.46.0.0/15|DE|ripencc|2007-04-16|HETZNER-AS, DE
79.212.69.48|3320|79.192.0.0/10|DE|ripencc|2007-06-06|DTAG Internet service provider operations, DE
80.111.226.61|6830|80.111.128.0/17|NL|ripencc|2001-07-19|LIBERTYGLOBAL Liberty Global (formerly UPC Broadband Holding, aka AORTA), NL
81.236.222.167|3301|81.224.0.0/12|SE|ripencc|2002-10-04|TELIANET-SWEDEN Telia Company, SE
81.236.246.232|3301|81.224.0.0/12|SE|ripencc|2002-10-04|TELIANET-SWEDEN Telia Company, SE
81.3.205.248|25255|81.3.192.0/18|AT|ripencc|2002-04-22|H3G-AUSTRIA-AS ==) TELE2 AUSTRIA (==, AT
82.10.220.141|5089|82.8.0.0/14|GB|ripencc|2003-02-28|NTL, GB
82.64.247.247|12322|82.64.0.0/14|FR|ripencc|2003-04-03|PROXAD, FR
84.112.177.143|6830|84.112.0.0/15|AT|ripencc|2004-04-07|LIBERTYGLOBAL Liberty Global (formerly UPC Broadband Holding, aka AORTA), NL
85.17.75.108|60781|85.17.0.0/16|NL|ripencc|2005-03-11|LEASEWEB-NL-AMS-01 Netherlands, NL
85.208.71.25|42275|85.208.71.0/24|FR|ripencc|2019-02-21|THREEFOURTEEN, FR
85.212.44.177|12312|85.212.0.0/18|DE|ripencc|2005-02-22|ECOTEL, DE
85.228.232.171|2119|85.224.0.0/13|SE|ripencc|2004-12-17|TELENOR-NEXTEL Telenor Norge AS, NO
86.7.146.132|5089|86.7.0.0/16|GB|ripencc|2005-03-29|NTL, GB
87.92.137.62|16086|87.92.0.0/14|FI|ripencc|2005-07-05|DNA, FI
88.82.181.44|39178|88.82.180.0/22|RU|ripencc|2005-12-22|OPTILINK-AS, RU
89.22.22.86|48166|89.22.16.0/20|RU|ripencc|2011-07-11|FORTEX-AS, RU
89.233.207.145|29518|89.233.192.0/18|SE|ripencc|2006-05-16|BREDBAND2, SE
90.224.159.157|3301|90.224.0.0/12|SE|ripencc|2006-05-30|TELIANET-SWEDEN Telia Company, SE
91.215.91.254|48078|91.215.91.0/24|RU|ripencc|2009-07-21|DAGOMYS-AS, RU
91.224.20.71|60562|91.224.20.0/23|IR|ripencc|2019-10-03|BEHDASHT-IT, IR
91.228.152.252|44066|91.228.152.0/22|ES|ripencc|2011-06-01|DE-FIRSTCOLO www.first-colo.net, DE
94.209.115.52|33915|94.208.0.0/14|NL|ripencc|2008-07-22|TNF-AS, NL
94.23.11.6|16276|94.23.0.0/16|FR|ripencc|2008-07-15|OVH, FR
94.23.21.80|16276|94.23.0.0/16|FR|ripencc|2008-07-15|OVH, FR
94.26.49.71|48452|94.26.49.0/24|BG|ripencc|2008-06-11|TRAFFIC-NET, BG
95.161.12.45|39598|95.161.0.0/18|AG|ripencc|2008-12-23|TIERA-AS, AG
95.164.65.194|39762|95.164.65.0/24|GI|ripencc|2008-12-31|VAK Poltava, Ukraine, UA
95.216.8.166|24940|95.216.0.0/16|DE|ripencc|2009-02-24|HETZNER-AS, DE
95.217.61.212|24940|95.217.0.0/16|DE|ripencc|2009-02-24|HETZNER-AS, DE
