# bitcoin dns seeds and whois results
IP Address|ASN|BGP Prefix|CC|Registry|Allocated|AS Name
100.19.103.121|701|100.19.0.0/16|US|arin|2010-12-28|UUNET, US
109.173.41.43|42610|109.173.0.0/17|RU|ripencc|2009-11-20|NCNET-AS, RU
109.227.19.190|12810|109.227.0.0/18|HR|ripencc|2010-01-28|VIPNET-AS 3G/GSM and Internet Service Provider, HR
121.78.223.195|9286|121.78.192.0/18|KR|apnic|2006-06-20|KINXIDC-AS-KR KINX, KR
121.99.210.213|9790|121.98.0.0/15|NZ|apnic|2010-08-26|VOCUSGROUPNZ VocusGroup, NZ
123.255.48.172|23655|123.255.32.0/19|NZ|apnic|2006-11-30|SNAP-NZ-AS Snap Internet Limited, NZ
13.127.108.110|16509|13.126.0.0/15|US|arin|2016-08-09|AMAZON-02, US
13.229.129.207|16509|13.228.0.0/15|US|arin|2019-10-01|AMAZON-02, US
13.232.38.92|16509|13.232.0.0/14|US|arin|2019-10-01|AMAZON-02, US
13.48.138.23|16509|13.48.0.0/15|US|arin|2020-08-05|AMAZON-02, US
13.51.141.92|16509|13.51.0.0/16|US|arin|2020-08-05|AMAZON-02, US
135.0.225.179|54614|135.0.224.0/21|CA|arin|2012-03-19|CIKTELECOM-CABLE, CA
136.144.205.205|20857|136.144.192.0/18|NL|ripencc|1989-08-29|TRANSIP-AS Amsterdam, the Netherlands, NL
143.110.216.174|14061|143.110.208.0/20|US|arin|2020-01-17|DIGITALOCEAN-ASN, US
143.110.238.6|14061|143.110.224.0/20|US|arin|2020-01-17|DIGITALOCEAN-ASN, US
147.229.146.52|197451|147.229.128.0/18|CZ|ripencc|1993-01-11|VUTBR-AS, CZ
15.161.54.116|16509|15.161.0.0/16|US|arin|2019-12-26|AMAZON-02, US
159.69.10.63|24940|159.69.0.0/16|DE|ripencc|1992-03-13|HETZNER-AS, DE
162.0.234.152|22612|162.0.224.0/20|US|arin|2020-04-03|NAMECHEAP-NET, US
162.244.80.208|19624|162.244.80.0/24|US|arin|2014-03-07|SERVERROOM, US
167.114.104.221|16276|167.114.0.0/17|CA|arin|2014-08-29|OVH, FR
172.103.217.236|25668|172.103.128.0/17|CA|arin|2015-06-22|CIPHERKEY, CA
172.105.21.216|63949|172.105.0.0/19|US|arin|2015-06-19|LINODE-AP Linode, LLC, US
173.33.167.212|812|173.32.0.0/14|CA|arin|2008-08-06|ROGERS-COMMUNICATIONS, CA
176.74.136.237|35613|176.74.128.0/19|CZ|ripencc|2011-06-15|NETDATACOMM, CZ
176.99.6.226|49352|176.99.6.0/24|RU|ripencc|2012-06-26|LOGOL-AS, RU
178.128.199.70|14061|178.128.192.0/20|US|ripencc|2010-03-03|DIGITALOCEAN-ASN, US
178.63.16.7|24940|178.63.0.0/16|DE|ripencc|2010-03-02|HETZNER-AS, DE
178.79.83.93|3212|178.79.64.0/18|SI|ripencc|2010-05-07|TELEMACH Broadband Access & Carrier Services, SI
18.134.152.187|16509|18.132.0.0/14|US|arin|2019-10-07|AMAZON-02, US
18.182.44.36|16509|18.182.0.0/16|US|arin|2019-10-07|AMAZON-02, US
180.50.177.250|4713|180.0.0.0/10|JP|apnic|2009-07-06|OCN NTT Communications Corporation, JP
185.107.83.55|43350|185.107.80.0/22|NL|ripencc|2015-07-03|NFORCE, NL
185.141.63.163|44901|185.141.63.0/24|CY|ripencc|2018-02-23|BELCLOUD, BG
185.17.143.220|48757|185.17.140.0/22|RU|ripencc|2013-01-30|TRUSTINFO TrustInfo, Moscow, Russia, RU
185.220.156.193|205377|185.220.156.0/22|CH|ripencc|2017-09-13|CLOUDBIT, CH
185.254.97.164|60548|185.254.96.0/22|DE|ripencc|2018-04-10|AVORO Avoro, DE
188.93.104.2|8409|188.93.104.0/23|RU|ripencc|2009-05-12|IITP-AS, RU
190.2.145.177|49981|190.2.144.0/20|CW|lacnic|2006-04-28|WORLDSTREAM, NL
192.186.131.26|55286|192.186.128.0/20|CA|arin|2013-08-02|SERVER-MANIA, CA
194.14.246.205|50066|194.14.246.0/24|SE|ripencc|1993-12-09|SRSTUBES-AS, SE
194.33.83.20|198854|194.33.83.0/24|PL|ripencc|2012-05-30|SECNET-AS, PL
195.139.204.20|2116|195.139.0.0/16|NO|ripencc|1997-05-09|ASN-CATCHCOM, NO
195.224.116.20|5413|195.224.0.0/16|GB|ripencc|1996-09-18|AS5413, GB
2.153.80.222|12430|2.152.0.0/14|ES|ripencc|2010-11-03|VODAFONE_ES, ES
2.31.34.30|12576|2.31.0.0/16|GB|ripencc|2010-09-21|EE Ltd, GB
204.12.207.91|32097|204.12.192.0/18|US|arin|2009-06-08|WII, US
205.196.146.243|16842|205.196.146.0/24|US|arin|2004-03-26|5DL-AS, US
207.254.73.148|395337|207.254.72.0/22|US|arin|2016-02-08|MACST-VEGAS, US
208.73.156.62|40447|208.73.156.0/22|US|arin|2017-02-08|SKYHAWK-GROUP, US
212.83.82.230|33915|212.83.80.0/20|NL|ripencc|1999-02-03|TNF-AS, NL
213.240.66.118|1901|213.240.64.0/18|AT|ripencc|2001-04-02|EUNETAT-AS A1 Telekom Austria AG, AT
216.213.116.81|46719|216.213.112.0/20|US|arin|2017-12-28|COMCELL4236207, US
217.64.133.220|60098|217.64.128.0/21|RU|ripencc|2008-10-29|INSITINVEST-AS, RU
223.205.104.41|45629|223.205.0.0/16|TH|apnic|2010-07-12|JASTEL-NETWORK-TH-AP JasTel Network International Gateway, TH
23.224.91.250|40065|23.224.91.0/24|US|arin|2013-09-04|CNSERVERS, US
24.134.6.165|3209|24.134.0.0/16|DE|ripencc|2012-04-25|VODANET International IP-Backbone of Vodafone, DE
27.230.7.173|9605|27.230.0.0/19|JP|apnic|2010-03-27|DOCOMO NTT DOCOMO, INC., JP
3.0.102.38|16509|3.0.0.0/15|US|arin|2017-12-20|AMAZON-02, US
3.17.213.129|16509|3.16.0.0/14|US|arin|2017-12-20|AMAZON-02, US
3.234.251.85|14618|3.224.0.0/12|US|arin|2018-06-25|AMAZON-AES, US
3.237.65.243|14618|3.224.0.0/12|US|arin|2018-06-25|AMAZON-AES, US
34.125.112.156|15169|34.124.0.0/14|US|arin|2018-09-28|GOOGLE, US
34.193.35.86|14618|34.192.0.0/12|US|arin|2016-09-12|AMAZON-AES, US
35.189.17.69|15169|35.189.0.0/19|US|arin|2016-10-11|GOOGLE, US
35.234.19.151|15169|35.232.0.0/14|US|arin|2017-09-29|GOOGLE, US
37.140.47.221|8369|37.140.0.0/17|RU|ripencc|2012-02-29|INTERSVYAZ-AS 38-B, Komsomolsky prospekt, RU
37.187.124.25|16276|37.187.0.0/16|FR|ripencc|2012-03-20|OVH, FR
37.205.14.137|24971|37.205.12.0/22|CZ|ripencc|2012-03-27|MASTER-AS Czech Republic / www.master.cz, CZ
41.112.167.114|16637|41.112.0.0/12|ZA|afrinic|2009-04-22|MTNNS-AS, ZA
45.76.236.196|20473|45.76.232.0/21|US|arin|2015-04-24|AS-CHOOPA, US
45.77.152.50|20473|45.77.144.0/20|US|arin|2015-04-24|AS-CHOOPA, US
46.229.168.201|39572|46.229.168.0/24|NL|ripencc|2011-02-17|ADVANCEDHOSTERS-AS, NL
46.229.238.187|29405|46.229.224.0/20|SK|ripencc|2011-02-21|VNET-AS, SK
47.253.1.115|45102|47.253.0.0/17|US|arin|2016-04-15|CNNIC-ALIBABA-US-NET-AP Alibaba (US) Technology Co., Ltd., CN
5.196.72.70|16276|5.196.0.0/16|FR|ripencc|2012-08-23|OVH, FR
5.79.87.56|60781|5.79.64.0/18|NL|ripencc|2012-06-14|LEASEWEB-NL-AMS-01 Netherlands, NL
5.9.158.123|24940|5.9.0.0/16|DE|ripencc|2012-04-25|HETZNER-AS, DE
51.159.38.92|12876|51.158.0.0/15|FR|ripencc|1993-09-01|Online SAS, FR
51.210.208.70|16276|51.210.0.0/16|FR|ripencc|1993-09-01|OVH, FR
51.38.34.42|16276|51.38.0.0/16|FR|ripencc|1993-09-01|OVH, FR
51.75.147.82|16276|51.75.0.0/16|FR|ripencc|1993-09-01|OVH, FR
51.89.235.94|16276|51.89.0.0/16|FR|ripencc|1993-09-01|OVH, FR
52.53.175.201|16509|52.52.0.0/15|US|arin|1991-12-19|AMAZON-02, US
54.36.172.26|16276|54.36.0.0/16|FR|ripencc|1992-03-17|OVH, FR
60.225.197.98|1221|60.224.0.0/13|AU|apnic|2004-07-28|ASN-TELSTRA Telstra Corporation Ltd, AU
62.171.155.146|51167|62.171.154.0/23|DE|ripencc|2000-08-18|CONTABO, DE
63.247.147.166|30221|63.247.144.0/20|US|arin|2007-04-11|T3COM, US
66.198.209.243|33152|66.198.208.0/22|US|arin|2003-09-05|KCEC-ASN, US
66.251.201.18|3356|66.251.201.0/24|US|arin|2005-05-18|LEVEL3, US
66.96.199.249|56300|66.96.199.0/24|SG|apnic|2001-11-01|MYREPUBLIC-SG MyRepublic Ltd., SG
67.213.201.172|6528|67.213.201.0/24|US|arin|2007-09-17|SOUTH-TELEP, US
69.13.39.34|54489|69.13.0.0/16|US|arin|2002-12-04|CORESPACE-DAL, US
71.198.208.72|7922|71.192.0.0/12|US|arin|2005-07-27|COMCAST-7922, US
72.250.184.57|33501|72.250.184.0/24|US|arin|2008-06-25|MTDIGITAL, US
74.137.220.142|10796|74.128.0.0/12|US|arin|2006-04-07|TWC-10796-MIDWEST, US
75.40.139.204|7018|75.40.0.0/14|US|arin|2006-02-28|ATT-INTERNET4, US
77.105.87.97|42621|77.105.64.0/18|FI|ripencc|2006-12-05|LPOK-AS, FI
78.129.165.63|20860|78.129.128.0/17|GB|ripencc|2007-04-18|IOMART-AS, GB
78.90.91.220|35141|78.90.91.0/24|BG|ripencc|2007-06-27|A1, BG
79.124.7.253|203380|79.124.7.0/24|BG|ripencc|2007-07-31|DAINTERNATIONALGROUP, GB
80.250.55.32|43513|80.250.48.0/20|LV|ripencc|2005-07-19|NANO-AS, LV
82.10.220.141|5089|82.8.0.0/14|GB|ripencc|2003-02-28|NTL, GB
84.60.73.18|3209|84.56.0.0/13|DE|ripencc|2004-08-17|VODANET International IP-Backbone of Vodafone, DE
85.26.39.69|12392|85.26.32.0/20|BE|ripencc|2005-03-09|ASBRUTELE VOO, BE
88.207.110.110|31012|88.207.0.0/17|HR|ripencc|2005-12-14|DCM-AS Vipnet d.o.o., HR
89.22.22.86|48166|89.22.16.0/20|RU|ripencc|2011-07-11|FORTEX-AS, RU
91.148.141.211|203380|91.148.141.0/24|BG|ripencc|2006-11-13|DAINTERNATIONALGROUP, GB
91.211.117.19|48587|91.211.117.0/24|UA|ripencc|2008-12-11|NET-0X2A-AS Datacentre _0x2a_, UA
91.237.77.5|198646|91.237.77.0/24|PL|ripencc|2012-03-21|INETHD-AS, PL
92.89.143.222|15557|92.88.0.0/13|FR|ripencc|2007-10-17|LDCOMNET, FR
93.180.116.123|42560|93.180.96.0/19|BA|ripencc|2011-12-01|BA-TELEMACH-AS Telemach d.o.o. Sarajevo, BA
93.190.142.127|49981|93.190.140.0/22|NL|ripencc|2008-05-16|WORLDSTREAM, NL
93.226.58.75|3320|93.192.0.0/10|DE|ripencc|2008-02-12|DTAG Internet service provider operations, DE
93.46.80.157|12874|93.46.0.0/15|IT|ripencc|2008-02-25|FASTWEB, IT
94.112.132.191|16019|94.112.0.0/16|CZ|ripencc|2008-07-09|VODAFONE-CZ-AS, CZ
94.114.61.26|3209|94.114.0.0/16|DE|ripencc|2008-07-09|VODANET International IP-Backbone of Vodafone, DE
95.48.228.45|5617|95.48.0.0/14|PL|ripencc|2008-09-26|TPNET, PL
97.84.96.62|20115|97.84.64.0/18|US|arin|2007-03-21|CHARTER-20115, US
