# bitcoin dns seeds and whois results
IP Address|ASN|BGP Prefix|CC|Registry|Allocated|AS Name
101.165.169.151|1221|101.160.0.0/11|AU|apnic|2010-12-23|ASN-TELSTRA Telstra Corporation Ltd, AU
103.129.13.34|135556|103.129.13.0/24|TH|apnic|2018-09-04|METRABYTEONE-AS-AP Metrabyte One Company Limited, TH
103.18.124.164|9336|103.18.124.0/22|AU|apnic|2013-03-15|WWWIRES-AU World Without Wires Pty Ltd, AU
103.214.68.72|138195|103.214.68.0/24|NZ|apnic|2016-04-08|MOACKCOLTD-AS-AP MOACK.Co.LTD, KR
104.198.163.89|15169|104.198.160.0/19|US|arin|2014-08-27|GOOGLE, US
104.238.220.199|23470|104.238.220.0/24|US|arin|2018-04-13|RELIABLESITE, US
104.248.165.25|14061|104.248.160.0/20|US|arin|2018-08-06|DIGITALOCEAN-ASN, US
110.169.32.119|17552|110.169.32.0/19|TH|apnic|2009-04-23|TRUEONLINE-AS-AP True Online, TH
118.67.201.40|7712|118.67.200.0/22|KH|apnic|2007-08-21|SABAY Sabay Digital (Cambodia), KH
131.188.40.191|680|131.188.0.0/16|DE|ripencc|1989-01-03|DFN Verein zur Foerderung eines Deutschen Forschungsnetzes e.V., DE
136.243.176.210|24940|136.243.0.0/16|DE|ripencc|2004-04-14|HETZNER-AS, DE
139.59.70.163|14061|139.59.64.0/20|SG|apnic|1990-06-27|DIGITALOCEAN-ASN, US
140.190.12.129|14828|140.190.0.0/20|US|arin|2015-11-04|HBCI-1999TA, US
141.164.36.74|20473|141.164.32.0/19|JP|apnic|1990-07-23|AS-CHOOPA, US
142.112.172.23|577|142.112.0.0/16|CA|arin|1993-04-05|BACOM, CA
144.2.116.168|57370|144.2.112.0/20|CH|ripencc|1993-09-01|WINGO, CH
144.76.137.181|24940|144.76.0.0/16|DE|ripencc|1990-11-16|HETZNER-AS, DE
144.76.82.16|24940|144.76.0.0/16|DE|ripencc|1990-11-16|HETZNER-AS, DE
147.135.156.72|16276|147.135.128.0/17|FR|ripencc|2017-03-22|OVH, FR
151.248.156.55|8821|151.248.128.0/17|CH|ripencc|2012-08-17|TELEZUG WWZ Telekom AG (TELEZUG), CH
157.230.252.124|14061|157.230.240.0/20|US|arin|2018-08-22|DIGITALOCEAN-ASN, US
158.181.153.211|41750|158.181.144.0/20|KG|ripencc|2011-11-10|AS-MEGALINE-, KG
162.221.89.50|21554|162.221.88.0/21|US|arin|2013-09-16|CYBERLYNK, US
164.68.108.59|51167|164.68.108.0/23|DE|ripencc|1992-12-17|CONTABO, DE
164.68.109.215|51167|164.68.108.0/23|DE|ripencc|1992-12-17|CONTABO, DE
172.250.72.126|20001|172.248.0.0/14|US|arin|2013-03-13|TWC-20001-PACWEST, US
176.191.182.3|5410|176.128.0.0/10|FR|ripencc|2011-07-06|BOUYGTEL-ISP, FR
177.52.173.62|263319|177.52.173.0/24|BR|lacnic|2014-03-06|JCR COMERCIO E SERVICOS DE TELECOMUNICACOES LTDA, BR
178.79.83.93|3212|178.79.64.0/18|SI|ripencc|2010-05-07|TELEMACH Broadband Access & Carrier Services, SI
18.228.31.45|16509|18.228.0.0/16|US|arin|2019-10-07|AMAZON-02, US
181.191.0.203|267436|181.191.0.0/23|BR|lacnic|2017-08-02|UPLINK INTERNET BANDA LARGA, BR
185.143.145.113|202302|185.143.145.0/24|UA|ripencc|2016-03-15|NETH-AS, UA
185.238.128.48|206238|185.238.128.0/22|NL|ripencc|2017-12-22|FREEDOMINTERNET, NL
185.254.97.164|60548|185.254.96.0/22|DE|ripencc|2018-04-10|AVORO Avoro, DE
185.78.209.28|202128|185.78.208.0/22|NO|ripencc|2014-11-25|FJORDANE-IT, NO
186.50.104.219|6057|186.50.96.0/20|UY|lacnic|2009-09-03|Administracion Nacional de Telecomunicaciones, UY
188.113.106.183|41164|188.113.104.0/21|NO|ripencc|2009-05-04|GET-NO GET Norway, NO
188.241.120.48|25369|188.241.120.0/24|GB|ripencc|2009-06-23|BANDWIDTH-AS, GB
188.68.216.61|49505|188.68.216.0/23|RU|ripencc|2009-08-25|SELECTEL, RU
188.68.45.143|197540|188.68.32.0/20|DE|ripencc|2009-08-25|NETCUP-AS netcup GmbH, DE
190.19.27.94|7303|190.18.0.0/15|AR|lacnic|2007-08-03|Telecom Argentina S.A., AR
192.241.163.142|14061|192.241.160.0/19|US|arin|2013-06-10|DIGITALOCEAN-ASN, US
193.138.154.43|197393|193.138.152.0/22|CZ|ripencc|2010-11-12|ASRUDOLFNET, CZ
193.196.39.95|34878|193.196.32.0/20|DE|ripencc|1993-09-01|KIT Karlsruhe Institute of Technology, DE
193.29.13.84|42397|193.29.13.0/24|RO|ripencc|2018-04-25|***************************************, RO
203.220.72.69|7545|203.220.72.0/24|AU|apnic|2001-02-20|TPG-INTERNET-AP TPG Telecom Limited, AU
206.123.128.176|396362|206.123.128.0/24|US|arin|2015-03-09|LEASEWEB-USA-NYC-11, US
212.51.138.12|13030|212.51.128.0/20|CH|ripencc|2008-05-06|INIT7, CH
213.174.156.72|39572|213.174.128.0/19|NL|ripencc|2008-01-17|ADVANCEDHOSTERS-AS, NL
213.207.92.227|9150|213.207.64.0/18|NL|ripencc|2005-03-30|INTERCONNECT Interconnect Services BV, NL
23.233.107.21|5645|23.233.104.0/21|CA|arin|2013-09-24|TEKSAVVY, CA
24.102.91.203|12271|24.102.64.0/18|US|arin|2014-02-10|TWC-12271-NYC, US
24.121.34.166|19108|24.121.0.0/17|US|arin|2001-09-20|SUDDENLINK-COMMUNICATIONS, US
24.141.166.152|7992|24.141.0.0/16|CA|arin|1999-05-03|COGECOWAVE, CA
24.237.96.82|8047|24.237.0.0/16|US|arin|1997-10-14|GCI, US
24.87.154.248|6327|24.87.152.0/22|CA|arin|2001-07-12|SHAW, CA
3.101.67.35|16509|3.101.0.0/16|US|arin|2017-12-20|AMAZON-02, US
31.47.202.112|34385|31.47.200.0/21|SE|ripencc|2011-03-22|TRIPNET, SE
34.229.46.133|14618|34.224.0.0/12|US|arin|2016-09-12|AMAZON-AES, US
34.64.138.114|139070|34.64.0.0/16|US|arin|2018-09-28|GOOGLE-AS-AP Google Asia Pacific Pte. Ltd., SG
34.65.210.142|15169|34.64.0.0/14|US|arin|2018-09-28|GOOGLE, US
34.92.136.198|15169|34.92.0.0/14|US|arin|2018-09-28|GOOGLE, US
34.95.223.61|15169|34.92.0.0/14|US|arin|2018-09-28|GOOGLE, US
35.194.161.52|15169|35.192.0.0/14|US|arin|2017-03-21|GOOGLE, US
35.234.57.250|15169|35.232.0.0/14|US|arin|2017-09-29|GOOGLE, US
35.236.164.193|15169|35.236.0.0/14|US|arin|2017-09-29|GOOGLE, US
45.154.252.98|61072|45.154.252.0/24|GB|ripencc|2019-09-17|EZNET-AS Used by Electrum Technologies GmbH, GB
47.242.63.115|45102|47.242.0.0/16|US|arin|2016-04-15|CNNIC-ALIBABA-US-NET-AP Alibaba (US) Technology Co., Ltd., CN
47.88.84.125|45102|47.88.84.0/23|US|arin|2015-05-18|CNNIC-ALIBABA-US-NET-AP Alibaba (US) Technology Co., Ltd., CN
5.149.250.76|61046|5.149.250.0/23|BG|ripencc|2012-07-18|HZ-UK-AS, BG
54.176.63.16|16509|54.176.0.0/15|US|arin|2014-10-23|AMAZON-02, US
54.179.17.66|16509|54.179.0.0/17|US|arin|2014-10-23|AMAZON-02, US
54.222.255.122|55960|54.222.128.0/17|CN|apnic|1992-03-17|BJ-GUANGHUAN-AP Beijing Guanghuan Xinwang Digital, CN
61.250.91.26|9848|61.250.64.0/18|KR|apnic|2001-03-21|SEJONGTELECOM-AS-KR Sejong Telecom, KR
62.109.14.6|29182|62.109.8.0/21|RU|ripencc|2008-09-26|THEFIRST-AS, RU
62.171.173.123|51167|62.171.172.0/23|DE|ripencc|2000-08-18|CONTABO, DE
64.225.71.231|14061|64.225.64.0/20|US|arin|2019-08-14|DIGITALOCEAN-ASN, US
64.98.72.92|32133|64.98.64.0/20|CA|arin|2000-05-18|AS-TING-BACKBONE, US
65.21.73.164|24940|65.21.0.0/16|DE|ripencc|2001-09-26|HETZNER-AS, DE
67.208.195.20|21889|67.208.195.0/24|US|arin|2007-07-18|RAPIDSYSTEMS, US
67.213.201.172|6528|67.213.201.0/24|US|arin|2007-09-17|SOUTH-TELEP, US
67.241.169.206|11351|67.240.0.0/15|US|arin|2008-02-27|TWC-11351-NORTHEAST, US
69.16.200.173|32244|69.16.192.0/18|US|arin|2005-05-26|LIQUIDWEB, US
69.59.18.22|397444|69.59.18.0/24|US|arin|2019-04-18|AS-OKI, US
69.7.124.146|30043|69.7.124.0/24|US|arin|2007-03-15|RBAND-AS30043, US
75.129.64.107|20115|75.129.64.0/20|US|arin|2006-07-17|CHARTER-20115, US
76.14.26.217|11404|76.14.0.0/17|US|arin|2007-05-02|AS-WAVE-1, US
76.14.50.128|11404|76.14.0.0/17|US|arin|2007-05-02|AS-WAVE-1, US
78.129.165.63|20860|78.129.128.0/17|GB|ripencc|2007-04-18|IOMART-AS, GB
78.42.230.4|3209|78.42.0.0/16|DE|ripencc|2007-03-23|VODANET International IP-Backbone of Vodafone, DE
78.46.78.206|24940|78.46.0.0/15|DE|ripencc|2007-04-16|HETZNER-AS, DE
80.123.162.113|8447|80.120.0.0/14|AT|ripencc|2001-09-12|A1TELEKOM-AT A1 Telekom Austria AG, AT
80.134.192.152|3320|80.128.0.0/12|DE|ripencc|2001-08-06|DTAG Internet service provider operations, DE
81.10.227.233|12605|81.10.128.0/17|AT|ripencc|2002-04-16|LIWEST-AT Linz, Austria, AT
81.166.239.85|29695|81.166.0.0/15|NO|ripencc|2005-01-04|ALTIBOX_AS Norway, NO
81.171.22.143|60781|81.171.0.0/19|NL|ripencc|2003-05-12|LEASEWEB-NL-AMS-01 Netherlands, NL
81.21.86.157|39280|81.21.80.0/21|AZ|ripencc|2006-01-13|ULTELNET-AS, AZ
83.150.56.145|8758|83.150.0.0/18|CH|ripencc|2004-03-16|IWAY, CH
84.214.83.11|41164|84.214.0.0/17|NO|ripencc|2005-07-07|GET-NO GET Norway, NO
85.170.178.143|15557|85.168.0.0/14|FR|ripencc|2004-12-21|LDCOMNET, FR
85.208.203.41|44092|85.208.203.0/24|IT|ripencc|2019-02-22|HALSERVICE, IT
88.115.110.150|719|88.112.0.0/14|FI|ripencc|2006-07-20|ELISA-AS Helsinki, Finland, FI
88.212.168.101|56329|88.212.168.0/21|GB|ripencc|2005-12-15|GIGACLEAR, GB
89.163.224.187|24961|89.163.128.0/17|DE|ripencc|2006-02-17|MYLOC-AS IP Backbone of myLoc managed IT AG, DE
89.233.105.60|29802|89.233.105.0/24|US|ripencc|2012-09-11|HVC-AS, US
92.237.242.79|5089|92.236.0.0/15|GB|ripencc|2007-10-31|NTL, GB
92.247.155.133|8717|92.247.0.0/16|BG|ripencc|2008-04-18|A1, BG
93.114.235.16|21396|93.114.234.0/23|GB|ripencc|2007-12-21|NETCONNEX NetConnex Broadband Ltd., GB
93.115.28.70|16125|93.115.24.0/21|LT|ripencc|2007-12-21|CHERRYSERVERS1-AS, LT
93.180.116.123|42560|93.180.96.0/19|BA|ripencc|2011-12-01|BA-TELEMACH-AS Telemach d.o.o. Sarajevo, BA
93.198.246.60|3320|93.192.0.0/10|DE|ripencc|2008-02-12|DTAG Internet service provider operations, DE
93.83.126.93|8447|93.82.0.0/15|AT|ripencc|2008-02-08|A1TELEKOM-AT A1 Telekom Austria AG, AT
94.110.23.215|47377|94.110.0.0/19|BE|ripencc|2008-06-20|ORANGE_BELGIUM_SA New company name is Orange Belgium SA, BE
95.143.218.179|29124|95.143.208.0/20|RU|ripencc|2009-09-08|ISKRATELECOM-AS SEVEN-SKY, RU
95.216.19.95|24940|95.216.0.0/16|DE|ripencc|2009-02-24|HETZNER-AS, DE
98.38.136.46|7922|98.32.0.0/11|US|arin|2007-06-06|COMCAST-7922, US
99.192.223.18|27589|99.192.128.0/17|US|arin|2009-04-22|MOJOHOST, US
