# bitcoin dns seeds and whois results
IP Address|ASN|BGP Prefix|CC|Registry|Allocated|AS Name
104.152.187.114|31863|104.152.184.0/21|US|arin|2014-07-18|DACEN-2, US
108.26.60.38|701|108.26.0.0/18|US|arin|2009-06-05|UUNET, US
109.173.41.95|42610|109.173.0.0/17|RU|ripencc|2009-11-20|NCNET-AS, RU
109.199.241.148|25374|109.199.241.0/24|BG|ripencc|2010-01-26|ESCOMBG-AS Local Internet Service Provider Bulgaria, BG
109.201.142.116|43350|109.201.128.0/19|NL|ripencc|2010-02-12|NFORCE, NL
109.206.168.240|50245|109.206.160.0/19|NL|ripencc|2010-01-22|SERVEREL-AS, NL
109.87.11.192|13188|109.87.11.0/24|UA|ripencc|2009-08-20|TRIOLAN, UA
122.116.90.171|3462|122.116.0.0/16|TW|apnic|2006-07-31|HINET Data Communication Business Group, TW
124.197.62.103|9790|124.197.0.0/18|NZ|apnic|2006-04-12|VOCUSGROUPNZ VocusGroup, NZ
13.212.4.107|16509|13.212.0.0/15|US|arin|2019-10-01|AMAZON-02, US
136.243.10.75|24940|136.243.0.0/16|DE|ripencc|2004-04-14|HETZNER-AS, DE
138.197.158.13|14061|138.197.144.0/20|US|arin|2016-01-26|DIGITALOCEAN-ASN, US
15.185.66.211|16509|15.185.0.0/16|US|arin|2021-01-28|AMAZON-02, US
159.65.95.133|14061|159.65.80.0/20|US|arin|2017-10-24|DIGITALOCEAN-ASN, US
160.16.110.6|9370|160.16.0.0/17|JP|apnic|1992-06-10|SAKURA-B SAKURA Internet Inc., JP
162.0.220.202|22612|162.0.220.0/24|US|arin|2020-09-03|NAMECHEAP-NET, US
162.251.108.130|32338|162.251.108.0/22|AI|arin|2014-01-07|HOSTISERVER, AI
163.172.179.243|12876|163.172.0.0/16|GB|ripencc|1992-02-14|Online SAS, FR
165.22.71.185|14061|165.22.64.0/20|US|arin|2018-10-16|DIGITALOCEAN-ASN, US
167.172.151.136|14061|167.172.144.0/20|US|ripencc|1993-08-30|DIGITALOCEAN-ASN, US
172.105.91.109|63949|172.105.64.0/19|US|arin|2015-06-19|LINODE-AP Linode, LLC, US
173.212.221.252|51167|173.212.192.0/19|DE|ripencc|2009-10-26|CONTABO, DE
174.94.4.173|577|174.94.0.0/16|CA|arin|2009-02-27|BACOM, CA
176.119.26.12|30860|176.119.26.0/24|UA|ripencc|2012-06-13|YURTEH-AS, UA
176.43.153.59|34984|176.43.153.0/24|TR|ripencc|2011-05-20|TELLCOM-AS, TR
178.18.245.204|51167|178.18.240.0/20|DE|ripencc|2010-04-27|CONTABO, DE
178.63.127.148|24940|178.63.0.0/16|DE|ripencc|2010-03-02|HETZNER-AS, DE
178.79.83.93|3212|178.79.64.0/18|SI|ripencc|2010-05-07|TELEMACH Broadband Access & Carrier Services, SI
180.59.248.202|4713|180.0.0.0/10|JP|apnic|2009-07-06|OCN NTT Communications Corporation, JP
184.160.82.12|5769|184.160.64.0/18|CA|arin|2010-06-21|VIDEOTRON, CA
184.66.170.113|6327|184.66.168.0/22|CA|arin|2010-01-15|SHAW, CA
185.145.129.155|204196|185.145.128.0/22|NL|ripencc|2016-04-01|ABELOHOST, NL
185.250.148.157|200019|185.250.148.0/24|MD|ripencc|2018-03-20|ALEXHOST, MD
185.48.43.53|200933|185.48.40.0/22|HU|ripencc|2014-02-18|TERANET-HU-AS, HU
188.155.216.38|6730|188.154.0.0/15|CH|ripencc|2009-05-08|SUNRISE, CH
188.241.120.48|25369|188.241.120.0/24|GB|ripencc|2009-06-23|BANDWIDTH-AS, GB
188.43.5.49|20485|188.43.0.0/16|RU|ripencc|2009-04-27|TRANSTELECOM Moscow, Russia, RU
188.6.228.25|5483|188.6.0.0/16|HU|ripencc|2011-09-30|MAGYAR-TELEKOM-MAIN-AS Magyar Telekom Nyrt., HU
190.162.176.54|22047|190.162.176.0/21|CL|lacnic|2008-09-09|VTR BANDA ANCHA S.A., CL
190.211.204.68|27833|190.211.200.0/21|AR|lacnic|2010-11-17|BVNET S.A., AR
194.147.113.201|21232|194.147.113.0/24|CH|ripencc|1993-09-01|GGAMAUR, CH
194.219.62.23|1241|194.219.0.0/17|GR|ripencc|1995-12-20|FORTHNET-GR Forthnet, EU
194.26.1.83|209984|194.26.1.0/24|ES|ripencc|2019-11-20|WIBER, ES
195.201.95.119|24940|195.201.0.0/16|DE|ripencc|1997-09-22|HETZNER-AS, DE
199.217.119.221|30083|199.217.112.0/21|US|arin|2012-06-21|AS-30083-GO-DADDY-COM-LLC, US
199.247.249.188|18988|199.247.240.0/20|CA|arin|2017-06-07|CITYWEST-CORP, CA
201.67.212.156|8167|201.67.192.0/18|BR|lacnic|2006-01-30|Brasil Telecom S/A - Filial Distrito Federal, BR
203.51.27.108|1221|203.48.0.0/14|AU|apnic|1994-09-02|ASN-TELSTRA Telstra Corporation Ltd, AU
207.254.73.148|395337|207.254.72.0/22|US|arin|2016-02-08|MACST-VEGAS, US
212.97.48.5|5602|212.97.32.0/19|IT|ripencc|1999-06-29|AS-IRIDEOS-KP, IT
216.38.129.164|6994|216.38.128.0/19|US|arin|1998-08-12|FASTMETRICS, US
217.197.184.48|20845|217.197.176.0/20|HU|ripencc|2004-10-25|DIGICABLE, HU
217.24.232.118|9063|217.24.224.0/20|DE|ripencc|2000-10-13|SAARGATE-AS VSE NET GmbH, DE
223.205.107.234|45629|223.205.0.0/16|TH|apnic|2010-07-12|JASTEL-NETWORK-TH-AP JasTel Network International Gateway, TH
3.112.22.239|16509|3.112.0.0/14|US|arin|2017-12-20|AMAZON-02, US
3.120.189.78|16509|3.120.0.0/14|US|arin|2017-12-20|AMAZON-02, US
34.101.167.102|139190|34.101.0.0/16|US|arin|2018-09-28|GOOGLE-AS-AP Google Asia Pacific Pte. Ltd., SG
34.213.51.110|16509|34.208.0.0/12|US|arin|2016-09-12|AMAZON-02, US
34.226.136.24|14618|34.224.0.0/12|US|arin|2016-09-12|AMAZON-AES, US
34.65.37.217|15169|34.64.0.0/14|US|arin|2018-09-28|GOOGLE, US
34.97.123.203|15169|34.97.0.0/17|US|arin|2018-09-28|GOOGLE, US
34.97.142.205|15169|34.97.128.0/17|US|arin|2018-09-28|GOOGLE, US
35.154.84.205|16509|35.154.0.0/16|US|arin|2016-08-09|AMAZON-02, US
35.245.48.156|15169|35.244.0.0/14|US|arin|2017-09-29|GOOGLE, US
46.188.6.104|8334|46.188.0.0/17|RU|ripencc|2010-11-24|CO-2COM-AS Moscow, RU
46.226.18.135|52176|46.226.16.0/21|CZ|ripencc|2011-01-19|TTC-, CZ
46.229.165.141|39572|46.229.160.0/20|NL|ripencc|2011-02-17|ADVANCEDHOSTERS-AS, NL
47.108.88.213|37963|47.108.0.0/16|CN|apnic|1989-01-06|CNNIC-ALIBABA-CN-NET-AP Hangzhou Alibaba Advertising Co.,Ltd., CN
47.242.87.227|45102|47.242.0.0/16|US|arin|2016-04-15|CNNIC-ALIBABA-US-NET-AP Alibaba (US) Technology Co., Ltd., CN
47.54.212.200|855|47.54.212.0/22|CA|arin|2012-04-09|CANET-ASN-4, CA
47.89.190.70|45102|47.89.160.0/19|US|arin|2015-05-18|CNNIC-ALIBABA-US-NET-AP Alibaba (US) Technology Co., Ltd., CN
47.93.230.171|37963|47.92.0.0/15|CN|apnic|1989-01-06|CNNIC-ALIBABA-CN-NET-AP Hangzhou Alibaba Advertising Co.,Ltd., CN
51.89.40.32|16276|51.89.0.0/16|FR|ripencc|1993-09-01|OVH, FR
51.91.66.27|16276|51.91.0.0/16|FR|ripencc|1993-09-01|OVH, FR
52.63.184.235|16509|52.62.0.0/15|US|arin|1991-12-19|AMAZON-02, US
58.119.175.215|4847|58.118.0.0/15|CN|apnic|2005-05-11|CNIX-AP China Networks Inter-Exchange, CN
58.185.69.243|3758|58.185.0.0/16|SG|apnic|2005-06-30|SINGNET SingNet, SG
60.53.145.250|4788|60.53.128.0/18|MY|apnic|2004-06-07|TMNET-AS-AP TM Net, Internet Service Provider, MY
62.212.89.208|60781|62.212.64.0/19|NL|ripencc|2000-06-22|LEASEWEB-NL-AMS-01 Netherlands, NL
64.227.113.117|14061|64.227.112.0/20|US|arin|2019-08-14|DIGITALOCEAN-ASN, US
66.220.122.95|4181|66.220.112.0/20|US|arin|2002-01-23|TDS-AS, US
67.190.159.9|7922|67.160.0.0/11|US|arin|2002-12-16|COMCAST-7922, US
69.13.39.40|54489|69.13.0.0/16|US|arin|2002-12-04|CORESPACE-DAL, US
72.95.130.161|701|72.95.128.0/17|US|arin|2005-06-24|UUNET, US
73.219.89.94|7922|73.0.0.0/8|US|arin|2005-04-19|COMCAST-7922, US
74.116.30.12|31845|74.116.28.0/22|US|arin|2009-07-29|ISI COMMUNICATIONS, US
74.199.111.243|12083|74.199.110.0/23|US|arin|2008-05-21|WOW-INTERNET, US
75.172.19.144|209|75.172.0.0/16|US|arin|2006-10-24|CENTURYLINK-US-LEGACY-QWEST, US
75.56.8.205|7018|75.48.0.0/12|US|arin|2006-02-28|ATT-INTERNET4, US
77.247.178.14|43350|77.247.176.0/21|NL|ripencc|2007-06-26|NFORCE, NL
78.46.140.12|24940|78.46.0.0/15|DE|ripencc|2007-04-16|HETZNER-AS, DE
78.63.28.146|8764|78.63.28.0/22|LT|ripencc|2007-03-21|TELIA-LIETUVA, LT
80.250.55.32|43513|80.250.48.0/20|LV|ripencc|2005-07-19|NANO-AS, LV
81.221.247.244|1836|81.221.0.0/16|CH|ripencc|2002-11-26|GREEN green.ch AG Autonomous System, CH
82.177.176.24|20804|82.177.0.0/16|PL|ripencc|2003-08-26|ASN-TELENERGO ul. PERKUNA 47, WARSZAWA, PL
82.208.29.42|15685|82.208.28.0/23|CZ|ripencc|2003-09-16|CASABLANCA-AS Internet & Collocation Provider, CZ
84.213.92.152|41164|84.213.0.0/17|NO|ripencc|2005-07-07|GET-NO GET Norway, NO
85.149.114.65|5390|85.149.0.0/16|NL|ripencc|2004-10-06|EURONET, NL
85.184.149.101|204274|85.184.128.0/19|DK|ripencc|2004-11-19|DK-AURA-AS, DK
85.195.54.110|35706|85.195.0.0/18|SE|ripencc|2005-01-04|NAO, SE
85.208.71.16|42275|85.208.71.0/24|FR|ripencc|2019-02-21|THREEFOURTEEN, FR
85.225.149.187|2119|85.224.0.0/13|SE|ripencc|2004-12-17|TELENOR-NEXTEL Telenor Norge AS, NO
87.79.94.221|8422|87.78.0.0/15|DE|ripencc|2005-05-31|NETCOLOGNE, DE
88.99.0.177|24940|88.99.0.0/16|DE|ripencc|2005-08-03|HETZNER-AS, DE
91.181.52.200|5432|91.180.0.0/14|BE|ripencc|2006-09-04|PROXIMUS-ISP-AS, BE
91.93.183.195|34984|91.93.183.0/24|TR|ripencc|2006-08-24|TELLCOM-AS, TR
92.53.64.230|49505|92.53.64.0/24|RU|ripencc|2008-02-15|SELECTEL, RU
93.180.178.213|30793|93.180.160.0/19|PL|ripencc|2012-09-06|ISTS-, PL
93.190.141.39|49981|93.190.140.0/22|NL|ripencc|2008-05-16|WORLDSTREAM, NL
93.46.54.4|12874|93.46.0.0/15|IT|ripencc|2008-02-25|FASTWEB, IT
95.131.148.78|41275|95.131.144.0/21|RU|ripencc|2009-03-31|LEALTA-AS Moscow, Russia, RU
95.216.78.249|24940|95.216.0.0/16|DE|ripencc|2009-02-24|HETZNER-AS, DE
97.84.96.62|20115|97.84.64.0/18|US|arin|2007-03-21|CHARTER-20115, US
99.192.223.18|27589|99.192.128.0/17|US|arin|2009-04-22|MOJOHOST, US
