# bitcoin dns seeds and whois results
IP Address|ASN|BGP Prefix|CC|Registry|Allocated|AS Name
102.132.227.107|37680|102.132.224.0/20|ZA|afrinic|2018-07-04|COOL-IDEAS, ZA
103.14.244.190|24482|103.14.244.0/23|SG|apnic|2012-08-13|SGGS-AS-AP SG.GS, SG
109.194.27.222|51645|109.194.16.0/20|RU|ripencc|2009-10-27|IRKUTSK-AS, RU
116.202.196.182|24940|116.202.0.0/16|DE|ripencc|2011-01-17|HETZNER-AS, DE
116.203.61.61|24940|116.203.0.0/16|DE|ripencc|2011-01-17|HETZNER-AS, DE
129.192.83.191|29518|129.192.80.0/22|US|arin|1994-11-15|BREDBAND2, SE
13.211.79.130|16509|13.210.0.0/15|US|arin|2019-10-01|AMAZON-02, US
135.181.2.188|24940|135.181.0.0/16|DE|ripencc|1996-04-30|HETZNER-AS, DE
136.243.4.204|24940|136.243.0.0/16|DE|ripencc|2004-04-14|HETZNER-AS, DE
146.226.76.227|20243|146.226.0.0/17|VI|arin|1991-02-28|U, VI
149.28.55.109|20473|149.28.32.0/19|US|arin|2018-05-04|AS-CHOOPA, US
15.207.111.189|16509|15.206.0.0/15|US|arin|2019-03-26|AMAZON-02, US
151.248.220.127|8821|151.248.128.0/17|CH|ripencc|2012-08-17|TELEZUG WWZ Telekom AG (TELEZUG), CH
159.203.125.129|14061|159.203.112.0/20|US|arin|2015-08-10|DIGITALOCEAN-ASN, US
159.224.189.250|13188|159.224.189.0/24|UA|ripencc|2011-09-20|TRIOLAN, UA
162.218.233.34|26721|162.218.233.0/24|US|arin|2018-03-20|INYO, US
163.158.206.255|15435|163.158.0.0/16|NL|ripencc|1992-09-01|KABELFOON DELTA Fiber Nederland, NL
165.232.157.191|14061|165.232.144.0/20|US|arin|2019-12-27|DIGITALOCEAN-ASN, US
167.86.90.67|51167|167.86.90.0/23|DE|ripencc|1993-05-14|CONTABO, DE
172.103.217.236|25668|172.103.128.0/17|CA|arin|2015-06-22|CIPHERKEY, CA
173.231.203.46|22611|173.231.192.0/20|US|arin|2018-10-23|INMOTION, US
173.249.60.9|51167|173.249.60.0/23|DE|ripencc|2010-05-26|CONTABO, DE
176.9.156.228|24940|176.9.0.0/16|DE|ripencc|2011-05-17|HETZNER-AS, DE
176.9.59.199|24940|176.9.0.0/16|DE|ripencc|2011-05-17|HETZNER-AS, DE
178.48.53.163|21334|178.48.0.0/17|HU|ripencc|2010-10-13|ASN-VODAFONE-, HU
178.66.70.91|12389|178.66.0.0/16|RU|ripencc|2010-01-05|ROSTELECOM-AS, RU
178.79.83.93|3212|178.79.64.0/18|SI|ripencc|2010-05-07|TELEMACH Broadband Access & Carrier Services, SI
18.179.50.95|16509|18.179.0.0/16|US|arin|2019-10-07|AMAZON-02, US
185.14.233.149|199490|185.14.232.0/22|CZ|ripencc|2013-01-08|INTERCONNECT, CZ
185.143.45.39|55293|185.143.44.0/22|US|ripencc|2016-03-11|A2HOSTING, US
185.159.80.204|14576|185.159.80.0/24|NL|ripencc|2016-07-12|HOSTING-SOLUTIONS, US
185.239.220.210|61282|185.239.220.0/22|SE|ripencc|2018-12-03|BRAINMILL, SE
185.78.209.28|202128|185.78.208.0/22|NO|ripencc|2014-11-25|FJORDANE-IT, NO
190.245.217.9|7303|190.245.192.0/19|AR|lacnic|2008-02-19|Telecom Argentina S.A., AR
192.151.158.26|33387|192.151.144.0/20|US|arin|2012-11-27|NOCIX, US
192.248.161.136|20473|192.248.160.0/20|US|ripencc|1992-11-09|AS-CHOOPA, US
192.42.253.213|60251|192.42.253.0/24|CH|ripencc|2019-11-12|CALYPSO-IT, CH
193.210.230.32|1759|193.208.0.0/14|FI|ripencc|1993-12-20|TSF-IP-CORE Telia Finland Oyj, FI
194.14.246.86|50066|194.14.246.0/24|SE|ripencc|1993-12-09|SRSTUBES-AS, SE
196.25.230.69|5713|196.25.0.0/16|ZA|afrinic|1995-10-24|SAIX-NET, ZA
204.13.239.221|55106|204.13.232.0/21|US|arin|2011-04-19|DATACATE-AS1, US
207.255.193.47|11776|207.255.193.0/24|US|arin|2004-06-14|ATLANTICBB-JOHNSTOWN, US
210.54.39.190|4771|210.54.32.0/21|NZ|apnic|2000-05-11|SPARKNZ Spark New Zealand Trading Ltd., NZ
212.83.82.230|33915|212.83.80.0/20|NL|ripencc|1999-02-03|TNF-AS, NL
213.178.28.118|29413|213.178.16.0/20|DE|ripencc|1999-12-15|KOMRO-AS Komro Telekommunikations GmbH, DE
213.239.212.30|24940|213.239.192.0/18|DE|ripencc|2003-05-28|HETZNER-AS, DE
213.89.176.153|39651|213.89.0.0/16|SE|ripencc|2000-12-27|TELE2-FIXED-SWEDEN, SE
213.93.176.58|33915|213.93.128.0/17|NL|ripencc|2000-05-09|TNF-AS, NL
217.64.47.138|39324|217.64.32.0/20|FI|ripencc|2010-05-12|MEDIAM-AS, FI
23.233.107.21|5645|23.233.104.0/21|CA|arin|2013-09-24|TEKSAVVY, CA
24.113.137.192|11404|24.113.0.0/16|US|arin|2004-01-07|AS-WAVE-1, US
24.87.154.248|6327|24.87.152.0/22|CA|arin|2001-07-12|SHAW, CA
32.214.183.114|46690|32.208.0.0/12|US|arin|1990-05-30|SNET-FCC, US
34.101.77.203|139190|34.101.0.0/16|US|arin|2018-09-28|GOOGLE-AS-AP Google Asia Pacific Pte. Ltd., SG
34.105.19.97|15169|34.104.0.0/14|US|arin|2018-09-28|GOOGLE, US
34.106.249.67|15169|34.104.0.0/14|US|arin|2018-09-28|GOOGLE, US
34.125.46.3|15169|34.124.0.0/14|US|arin|2018-09-28|GOOGLE, US
34.193.35.86|14618|34.192.0.0/12|US|arin|2016-09-12|AMAZON-AES, US
34.64.144.84|139070|34.64.0.0/16|US|arin|2018-09-28|GOOGLE-AS-AP Google Asia Pacific Pte. Ltd., SG
34.64.249.186|139070|34.64.0.0/16|US|arin|2018-09-28|GOOGLE-AS-AP Google Asia Pacific Pte. Ltd., SG
34.95.0.69|15169|34.92.0.0/14|US|arin|2018-09-28|GOOGLE, US
35.186.187.87|15169|35.186.160.0/19|US|arin|2016-10-11|GOOGLE, US
35.197.172.49|15169|35.196.0.0/15|US|arin|2017-03-21|GOOGLE, US
35.204.194.255|15169|35.204.0.0/15|US|arin|2017-03-21|GOOGLE, US
37.1.200.82|58061|37.1.200.0/21|GB|ripencc|2011-12-13|SCALAXY-AS, NL
37.1.217.35|58061|37.1.216.0/21|GB|ripencc|2011-12-13|SCALAXY-AS, NL
37.135.146.127|12479|37.135.146.0/23|ES|ripencc|2012-02-21|UNI2-AS, ES
37.140.47.221|8369|37.140.0.0/17|RU|ripencc|2012-02-29|INTERSVYAZ-AS 38-B, Komsomolsky prospekt, RU
45.183.140.233|264824|45.183.140.0/24|EC|lacnic|2019-09-25|COMPANIA ELECTROMECANICOS PARA EL DESARROLLO CSED SA, EC
45.58.126.138|23470|45.58.126.0/24|US|arin|2015-02-24|RELIABLESITE, US
45.9.188.239|47583|45.9.188.0/22|DE|ripencc|2019-04-23|AS-HOSTINGER, CY
46.23.87.218|3265|46.23.80.0/20|NL|ripencc|2010-12-02|XS4ALL-NL Amsterdam, NL
47.214.217.54|19108|47.214.192.0/18|US|arin|2015-09-08|SUDDENLINK-COMMUNICATIONS, US
5.188.56.54|49505|5.188.56.0/22|RU|ripencc|2012-08-09|SELECTEL, RU
5.188.62.18|34665|5.188.62.0/24|RU|ripencc|2012-08-09|PINDC-AS, RU
5.189.154.139|51167|5.189.144.0/20|DE|ripencc|2012-08-09|CONTABO, DE
5.45.74.50|58061|5.45.72.0/22|GB|ripencc|2012-05-24|SCALAXY-AS, NL
51.77.52.201|16276|51.77.0.0/16|FR|ripencc|1993-09-01|OVH, FR
52.138.144.107|8075|52.136.0.0/13|US|arin|2015-11-24|MICROSOFT-CORP-MSN-AS-BLOCK, US
54.203.6.30|16509|54.202.0.0/15|US|arin|2014-10-23|AMAZON-02, US
54.252.45.131|16509|54.252.0.0/17|US|arin|2012-03-01|AMAZON-02, US
54.65.201.164|16509|54.64.0.0/15|US|arin|2014-06-20|AMAZON-02, US
66.115.219.87|13576|66.115.192.0/18|US|arin|2002-12-20|SDNW-13576, US
66.165.225.130|29802|66.165.224.0/21|US|arin|2017-05-17|HVC-AS, US
69.12.80.84|8100|69.12.64.0/19|US|arin|2014-02-27|ASN-QUADRANET-GLOBAL, US
71.205.226.44|7922|71.192.0.0/12|US|arin|2005-07-27|COMCAST-7922, US
72.71.251.161|13672|72.71.192.0/18|US|arin|2005-06-24|FAIRPO-3, US
76.100.17.13|7922|76.96.0.0/11|US|arin|2007-01-02|COMCAST-7922, US
77.11.31.183|6805|77.0.0.0/12|DE|ripencc|2006-11-21|TDDE-ASN1, DE
77.70.16.245|35141|77.70.16.0/24|BG|ripencc|2007-02-21|MEGALAN, BG
77.93.223.9|24971|77.93.192.0/19|CZ|ripencc|2007-05-18|MASTER-AS Czech Republic / www.master.cz, CZ
79.152.248.16|3352|79.152.0.0/16|ES|ripencc|2007-06-07|TELEFONICA_DE_ESPANA, ES
80.235.34.231|3249|80.235.0.0/17|EE|ripencc|2001-10-11|ESTPAK, EE
81.170.143.123|8473|81.170.128.0/17|SE|ripencc|2003-05-12|BAHNHOF http://www.bahnhof.net/, SE
81.7.17.202|35366|81.7.0.0/19|DE|ripencc|2009-09-18|ISPPRO-AS ISPPRO-AS covers the networks of ISPpro, DE
83.99.247.25|24651|83.99.128.0/17|LV|ripencc|2004-01-27|LVBALTICOM-AS, LV
85.70.97.59|5610|85.70.0.0/17|CZ|ripencc|2004-11-02|O2-CZECH-REPUBLIC, CZ
86.167.78.250|2856|86.128.0.0/10|GB|ripencc|2005-02-07|BT-UK-AS BTnet UK Regional network, GB
86.40.163.208|5466|86.40.0.0/13|IE|ripencc|2005-03-31|EIRCOM Internet House, IE
86.40.245.227|5466|86.40.0.0/13|IE|ripencc|2005-03-31|EIRCOM Internet House, IE
87.246.46.132|43561|87.246.46.0/23|BG|ripencc|2005-08-25|NET1-AS, BG
88.112.106.7|719|88.112.0.0/14|FI|ripencc|2005-08-24|ELISA-AS Helsinki, Finland, FI
88.134.149.7|3209|88.134.0.0/16|DE|ripencc|2005-10-31|VODANET International IP-Backbone of Vodafone, DE
89.239.99.102|31608|89.239.96.0/19|PL|ripencc|2007-05-25|GAWEX-AS Plac Wolnosci 11 Szczecinek, PL
89.252.40.18|31148|89.252.40.0/24|UA|ripencc|2006-08-01|FREENET_LLC, UA
90.49.95.3|3215|90.49.0.0/16|FR|ripencc|2006-03-02|France Telecom - Orange, FR
91.77.165.170|8359|91.76.0.0/14|RU|ripencc|2006-08-21|MTS, RU
92.201.162.51|20676|92.200.0.0/15|DE|ripencc|2007-10-17|PLUSNET *****************, DE
92.91.27.60|15557|92.88.0.0/13|FR|ripencc|2007-10-17|LDCOMNET, FR
93.187.182.176|48124|93.187.180.0/22|RU|ripencc|2008-07-22|COMSTAR-REGIONS-TVER, RU
94.112.132.191|16019|94.112.0.0/16|CZ|ripencc|2008-07-09|VODAFONE-CZ-AS, CZ
94.141.169.64|34602|94.141.160.0/19|RU|ripencc|2010-07-07|STARLINK-AS Moscow, Russia, RU
94.174.64.12|5089|94.174.0.0/16|GB|ripencc|2008-08-28|NTL, GB
95.182.113.34|48780|95.182.112.0/23|CZ|ripencc|2009-02-05|ROSTELECOM-AS, CZ
95.82.160.113|31246|95.82.128.0/18|CZ|ripencc|2008-12-11|NETBOX-AS NETBOX Autonomous system, CZ
97.92.108.162|20115|97.92.96.0/20|US|arin|2007-03-21|CHARTER-20115, US
98.21.69.169|7029|98.16.0.0/13|US|arin|2007-02-05|WINDSTREAM, US
