# bitcoin dns seeds and whois results
IP Address|ASN|BGP Prefix|CC|Registry|Allocated|AS Name
112.120.156.4|4760|112.120.128.0/19|HK|apnic|2009-01-22|HKTIMS-AP HKT Limited, HK
134.101.9.114|44229|134.101.8.0/21|DE|ripencc|1989-05-22|DTST_AS_01, DE
139.180.70.69|55850|139.180.64.0/18|NZ|apnic|1993-04-08|TRUSTPOWERLTD-AS-AP TrustPower Ltd, NZ
144.76.136.55|24940|144.76.0.0/16|DE|ripencc|1990-11-16|HETZNER-AS, DE
15.206.84.150|16509|15.206.0.0/15|US|arin|2019-03-26|AMAZON-02, US
163.172.61.48|12876|163.172.0.0/16|GB|ripencc|1992-02-14|Online SAS, FR
175.43.241.24|4837|175.42.0.0/15|CN|apnic|2009-12-15|CHINA169-BACKBONE CHINA UNICOM China169 Backbone, CN
178.16.222.146|50821|178.16.208.0/20|SE|ripencc|2010-03-09|ASHPDC, SE
178.63.65.15|24940|178.63.0.0/16|DE|ripencc|2010-03-02|HETZNER-AS, DE
178.79.83.93|3212|178.79.64.0/18|SI|ripencc|2010-05-07|TELEMACH Broadband Access & Carrier Services, SI
181.53.236.171|10620|181.53.236.0/22|CO|lacnic|2011-05-02|Telmex Colombia S.A., CO
188.142.196.79|21334|188.142.192.0/19|HU|ripencc|2009-06-10|ASN-VODAFONE-, HU
188.2.104.158|31042|188.2.0.0/17|RS|ripencc|2009-02-12|SERBIA-BROADBAND-AS Serbia BroadBand-Srpske Kablovske mreze d.o.o., RS
193.198.34.24|2108|193.198.0.0/16|HR|ripencc|1993-09-01|CARNET-AS J.Marohnica 5, 10000 Zagreb, HR
201.210.190.251|8048|201.210.160.0/19|VE|lacnic|2005-08-09|CANTV Servicios, Venezuela, VE
202.65.65.205|38195|202.65.64.0/19|AU|apnic|1999-06-22|SUPERLOOP-AS-AP Superloop, AU
209.188.31.52|20454|209.188.0.0/19|US|arin|2004-05-18|SSASN2, US
213.221.218.50|15600|213.221.192.0/18|CH|ripencc|2003-03-07|FINECOM Quickline AG, CH
213.239.214.66|24940|213.239.192.0/18|DE|ripencc|2003-05-28|HETZNER-AS, DE
217.23.1.126|49981|217.23.0.0/20|NL|ripencc|2009-02-04|WORLDSTREAM, NL
24.157.130.222|5769|24.157.128.0/18|CA|arin|2011-10-19|VIDEOTRON, CA
24.209.165.116|10796|24.209.160.0/19|US|arin|2001-06-29|TWC-10796-MIDWEST, US
24.64.86.246|6327|24.64.84.0/22|CA|arin|1996-06-03|SHAW, CA
3.142.135.105|16509|3.136.0.0/13|US|arin|2018-06-25|AMAZON-02, US
3.96.190.111|16509|3.96.0.0/15|US|arin|2017-12-20|AMAZON-02, US
34.97.173.26|15169|34.97.128.0/17|US|arin|2018-09-28|GOOGLE, US
37.143.116.43|48926|37.143.112.0/21|CZ|ripencc|2012-03-02|PE3NY-AS, CZ
5.150.239.205|8473|5.150.192.0/18|SE|ripencc|2012-07-18|BAHNHOF http://www.bahnhof.net/, SE
5.61.50.213|58061|5.61.48.0/22|GB|ripencc|2012-06-07|SCALAXY-AS, NL
51.107.43.38|8075|51.107.0.0/16|GB|ripencc|1993-09-01|MICROSOFT-CORP-MSN-AS-BLOCK, US
54.241.144.222|16509|54.241.128.0/19|US|arin|2012-03-01|AMAZON-02, US
54.245.51.27|16509|54.245.0.0/17|US|arin|2012-03-01|AMAZON-02, US
62.113.118.253|48282|62.113.118.0/24|RU|ripencc|2000-08-16|VDSINA-AS, RU
68.183.240.19|14061|68.183.240.0/22|US|arin|2018-09-18|DIGITALOCEAN-ASN, US
77.1.164.182|6805|77.0.0.0/12|DE|ripencc|2006-11-21|TDDE-ASN1, DE
77.20.185.230|3209|77.20.0.0/14|DE|ripencc|2008-04-08|VODANET International IP-Backbone of Vodafone, DE
77.37.156.166|42610|77.37.128.0/17|RU|ripencc|2007-03-21|NCNET-AS, RU
80.234.29.165|12389|80.234.0.0/17|RU|ripencc|2008-01-29|ROSTELECOM-AS, RU
81.249.105.64|3215|81.249.0.0/17|FR|ripencc|2003-02-13|France Telecom - Orange, FR
82.181.91.236|16086|82.181.0.0/16|FI|ripencc|2003-10-10|DNA, FI
82.64.20.76|12322|82.64.0.0/14|FR|ripencc|2003-04-03|PROXAD, FR
88.201.242.91|35807|88.201.128.0/17|RU|ripencc|2005-11-08|SKYNET-SPB-AS, RU
89.238.77.110|34240|89.238.64.0/18|DE|ripencc|2006-07-21|MANITU, DE
92.195.108.220|20676|92.192.0.0/13|DE|ripencc|2007-10-17|PLUSNET *****************, DE
94.231.253.18|35224|94.231.253.0/24|NL|ripencc|2009-06-23|PLINQ, NL
96.79.125.33|7922|96.64.0.0/11|US|arin|2008-02-21|COMCAST-7922, US
