# bitcoin dns seeds and whois results
IP Address|ASN|BGP Prefix|CC|Registry|Allocated|AS Name
114.23.122.174|56030|114.23.0.0/16|NZ|apnic|2011-01-10|VOYAGERNET-AS-AP Voyager Internet Ltd., NZ
117.74.45.247|59108|117.74.32.0/19|JP|apnic|2007-07-06|KATCH-NET KATCH NETWORK INC., JP
13.112.175.43|16509|13.112.0.0/14|US|arin|2016-08-09|AMAZON-02, US
155.138.175.7|20473|155.138.160.0/20|US|arin|2018-12-05|AS-CHOOPA, US
161.97.129.105|51167|161.97.128.0/19|DE|ripencc|1992-06-23|CONTABO, DE
173.249.60.59|51167|173.249.60.0/23|DE|ripencc|2010-05-26|CONTABO, DE
176.9.110.2|24940|176.9.0.0/16|DE|ripencc|2011-05-17|HETZNER-AS, DE
178.79.83.93|3212|178.79.64.0/18|SI|ripencc|2010-05-07|TELEMACH Broadband Access & Carrier Services, SI
188.134.5.135|41733|188.134.0.0/17|RU|ripencc|2009-04-27|ZTELECOM-AS, RU
190.0.236.200|28073|190.0.236.0/24|AR|lacnic|2010-11-09|Cooperativa Electrica Trenque Lauquen, AR
199.164.166.141|393507|199.164.166.0/24|US|arin|1994-03-15|GUSHISYS, US
2.202.72.147|3209|2.200.0.0/14|DE|ripencc|2010-11-18|VODANET International IP-Backbone of Vodafone, DE
202.239.42.192|4694|202.239.32.0/19|JP|apnic|1995-03-29|IDCF IDC Frontier Inc., JP
203.185.243.40|7545|203.185.243.0/24|AU|apnic|2001-10-10|TPG-INTERNET-AP TPG Telecom Limited, AU
205.196.146.100|16842|205.196.146.0/24|US|arin|2004-03-26|5DL-AS, US
211.233.9.195|3786|211.233.0.0/18|KR|apnic|2000-09-08|LGDACOM LG DACOM Corporation, KR
213.239.211.6|24940|213.239.192.0/18|DE|ripencc|2003-05-28|HETZNER-AS, DE
3.0.97.94|16509|3.0.0.0/15|US|arin|2017-12-20|AMAZON-02, US
3.1.219.148|16509|3.0.0.0/15|US|arin|2017-12-20|AMAZON-02, US
3.120.158.102|16509|3.120.0.0/14|US|arin|2017-12-20|AMAZON-02, US
3.234.251.85|14618|3.224.0.0/12|US|arin|2018-06-25|AMAZON-AES, US
3.26.49.147|16509|3.24.0.0/14|US|arin|2017-12-20|AMAZON-02, US
34.125.177.239|15169|34.124.0.0/14|US|arin|2018-09-28|GOOGLE, US
4.16.58.146|3356|4.0.0.0/9|US|arin|1992-12-01|LEVEL3, US
47.156.78.125|5650|47.156.0.0/16|US|arin|2015-08-28|FRONTIER-FRTR, US
5.189.150.28|51167|5.189.144.0/20|DE|ripencc|2012-08-09|CONTABO, DE
5.189.84.241|12668|5.189.0.0/17|RU|ripencc|2012-08-09|MIRALOGIC-AS, RU
5.196.75.231|16276|5.196.0.0/16|FR|ripencc|2012-08-23|OVH, FR
5.43.228.110|51248|5.43.224.0/21|CZ|ripencc|2012-05-22|HOST-TELECOM, CZ
5.9.52.19|24940|5.9.0.0/16|DE|ripencc|2012-04-25|HETZNER-AS, DE
51.154.4.160|15796|51.154.0.0/16|CH|ripencc|1993-09-01|SALT-, CH
62.113.118.253|48282|62.113.118.0/24|RU|ripencc|2000-08-16|VDSINA-AS, RU
66.18.172.21|11711|66.18.160.0/20|US|arin|2004-03-03|TULAROSA-COMMUNICATIONS, US
71.166.42.70|701|71.166.0.0/17|US|arin|2005-06-01|UUNET, US
78.27.139.13|15683|78.27.128.0/18|UA|ripencc|2010-06-11|DOMASHKA-AS, UA
78.46.195.108|24940|78.46.0.0/15|DE|ripencc|2007-04-16|HETZNER-AS, DE
84.22.139.57|33991|84.22.136.0/21|RU|ripencc|2004-09-22|IGRA-SERVICE-AS, RU
84.46.121.222|15943|84.46.0.0/17|DE|ripencc|2004-09-29|WTNET-AS wilhelm.tel GmbH, DE
91.148.147.214|45007|91.148.147.0/24|BG|ripencc|2006-11-13|VIPNET, BG
91.209.51.131|48239|91.209.51.0/24|UA|ripencc|2008-10-22|ITTV-AS Kiev, Ukraine, UA
93.123.180.164|35539|93.123.128.0/17|RU|ripencc|2008-03-07|INFOLINK-T-AS Moscow, Russia, RU
93.180.116.123|42560|93.180.96.0/19|BA|ripencc|2011-12-01|BA-TELEMACH-AS Telemach d.o.o. Sarajevo, BA
94.130.177.158|24940|94.130.0.0/16|DE|ripencc|2008-06-23|HETZNER-AS, DE
95.110.234.93|31034|95.110.192.0/18|IT|ripencc|2008-12-18|ARUBA-ASN, IT
95.143.218.179|29124|95.143.208.0/20|RU|ripencc|2009-09-08|ISKRATELECOM-AS SEVEN-SKY, RU
95.211.174.137|60781|95.211.0.0/16|NL|ripencc|2009-02-05|LEASEWEB-NL-AMS-01 Netherlands, NL
