# bitcoin dns seeds and whois results
IP Address|ASN|BGP Prefix|CC|Registry|Allocated|AS Name
103.150.0.243|135902|103.150.0.0/23|VN|apnic|2020-03-30|HAHALOLO-AS-VN Hahalolo Travel Social Network Joint Stock Company, VN
104.11.116.153|7018|104.0.0.0/12|US|arin|2014-01-16|ATT-INTERNET4, US
104.149.173.150|40676|104.149.0.0/16|US|arin|2014-07-01|AS40676, US
104.156.250.138|20473|104.156.248.0/22|US|arin|2014-07-22|AS-CHOOPA, US
106.250.188.106|3786|106.240.0.0/12|KR|apnic|2011-03-28|LGDACOM LG DACOM Corporation, KR
110.173.58.162|45753|110.173.58.0/24|HK|apnic|2009-05-07|NETSEC-HK NETSEC, HK
110.238.104.133|136907|110.238.104.0/21|SG|apnic|2009-05-18|HWCLOUDS-AS-AP HUAWEI CLOUDS, HK
111.90.140.132|45839|111.90.140.0/24|MY|apnic|2009-06-17|SHINJIRU-MY-AS-AP Shinjiru Technology Sdn Bhd, MY
13.124.60.74|16509|13.124.0.0/16|US|arin|2016-08-09|AMAZON-02, US
13.228.253.91|16509|13.228.0.0/15|US|arin|2019-10-01|AMAZON-02, US
13.49.77.201|16509|13.48.0.0/15|US|arin|2020-08-05|AMAZON-02, US
136.24.119.249|19165|136.24.0.0/16|US|arin|2016-10-31|WEBPASS, US
136.32.167.206|16591|136.32.160.0/20|US|arin|2015-10-06|GOOGLE-FIBER, US
139.180.67.129|55850|139.180.64.0/18|NZ|apnic|1993-04-08|TRUSTPOWERLTD-AS-AP TrustPower Ltd, NZ
14.187.112.11|45899|14.187.112.0/20|VN|apnic|2010-08-16|VNPT-AS-VN VNPT Corp, VN
143.110.171.5|14061|143.110.160.0/20|US|arin|2020-01-17|DIGITALOCEAN-ASN, US
147.135.165.147|16276|147.135.128.0/17|FR|ripencc|2017-03-22|OVH, FR
15.223.116.208|16509|15.222.0.0/15|US|arin|2019-12-26|AMAZON-02, US
15.237.117.105|16509|15.236.0.0/15|US|arin|2018-09-27|AMAZON-02, US
154.20.3.240|852|154.20.0.0/16|CA|arin|1992-02-05|TELUS Communications, CA
156.57.164.229|855|156.57.164.0/22|CA|arin|2014-09-18|CANET-ASN-4, CA
159.89.124.195|14061|159.89.112.0/20|US|arin|2017-07-07|DIGITALOCEAN-ASN, US
168.119.172.18|24940|168.119.0.0/16|DE|ripencc|1994-04-05|HETZNER-AS, DE
170.250.84.130|23089|170.250.0.0/17|US|arin|2015-11-02|HOTWIRE-COMMUNICATIONS, US
174.142.191.132|32613|174.142.0.0/16|CA|arin|2008-12-19|IWEB-AS, CA
176.9.57.195|24940|176.9.0.0/16|DE|ripencc|2011-05-17|HETZNER-AS, DE
178.128.206.59|14061|178.128.192.0/20|US|ripencc|2010-03-03|DIGITALOCEAN-ASN, US
178.128.250.140|14061|178.128.240.0/20|US|ripencc|2010-03-03|DIGITALOCEAN-ASN, US
178.132.7.149|49981|178.132.0.0/21|NL|ripencc|2011-09-28|WORLDSTREAM, NL
178.20.100.35|45012|178.20.100.0/22|DE|ripencc|2010-02-22|CLOUDPIT, DE
178.79.83.93|3212|178.79.64.0/18|SI|ripencc|2010-05-07|TELEMACH Broadband Access & Carrier Services, SI
184.146.199.227|577|184.146.0.0/16|CA|arin|2010-04-12|BACOM, CA
185.143.45.39|55293|185.143.44.0/22|US|ripencc|2016-03-11|A2HOSTING, US
185.30.247.169|197722|185.30.244.0/22|ES|ripencc|2013-07-18|TELECABLEANDALUCIA-AS, ES
185.64.116.15|31736|185.64.116.0/22|CH|ripencc|2014-07-21|SENSELAN-AS senseLAN GmbH, CH
185.88.132.166|50941|185.88.132.0/24|TR|ripencc|2015-02-17|VARGONEN, TR
188.122.2.55|49743|188.122.0.0/20|PL|ripencc|2009-05-14|FINEMEDIA-WROCLAW, PL
188.165.244.143|16276|188.165.0.0/16|FR|ripencc|2009-06-05|OVH, FR
188.214.132.45|16125|188.214.128.0/21|LT|ripencc|2009-05-08|CHERRYSERVERS1-AS, LT
188.244.4.78|39709|188.244.0.0/20|RU|ripencc|2009-07-07|EXTREME-AS, RU
188.85.61.1|12430|188.84.0.0/14|ES|ripencc|2009-04-29|VODAFONE_ES, ES
190.220.16.92|19037|190.220.0.0/17|AR|lacnic|2007-10-30|AMX Argentina S.A., AR
194.187.224.131|34197|194.187.224.0/22|FR|ripencc|2005-09-21|SHRD-AS, FR
195.123.188.186|197726|195.123.188.0/24|UA|ripencc|1997-04-04|UKRNAMES-AS, UA
195.135.194.8|39149|195.135.194.0/24|RO|ripencc|2009-01-14|STS International SRL, RO
195.211.161.124|44341|195.211.161.0/24|RU|ripencc|2009-10-20|SEVONLINE, RU
198.254.80.65|26827|198.254.80.0/20|US|arin|2013-02-22|EPBTELECOM, US
199.247.29.89|20473|199.247.24.0/21|US|ripencc|1996-04-09|AS-CHOOPA, US
199.48.92.184|30600|199.48.92.0/22|US|arin|2016-12-19|AS-CMN, US
20.73.167.33|8075|20.64.0.0/10|US|arin|2017-10-18|MICROSOFT-CORP-MSN-AS-BLOCK, US
200.115.241.188|27747|200.115.240.0/20|AR|lacnic|2004-08-03|Telecentro S.A., AR
202.73.14.207|55720|202.73.14.0/24|MY|apnic|2004-12-03|GIGABIT-MY Gigabit Hosting Sdn Bhd, MY
208.68.38.182|14061|208.68.38.0/24|US|arin|2012-10-03|DIGITALOCEAN-ASN, US
209.188.18.218|20454|209.188.0.0/19|US|arin|2004-05-18|SSASN2, US
209.204.20.46|395439|209.204.20.0/22|US|arin|2018-06-13|JECNET, US
213.55.171.175|15796|213.55.128.0/17|CH|ripencc|2000-10-12|SALT-, CH
216.108.227.39|26277|216.108.227.0/24|US|arin|2008-04-11|PREMIANET, US
216.146.251.8|394778|216.146.250.0/23|US|arin|2003-01-17|NEMR, US
216.226.128.189|13706|216.226.128.0/24|US|arin|1999-05-13|COMPLETEWEBNET, US
216.38.129.164|6994|216.38.128.0/19|US|arin|1998-08-12|FASTMETRICS, US
216.74.32.109|20021|216.74.32.0/20|US|arin|1998-09-15|LNH-INC, US
3.101.125.70|16509|3.101.0.0/16|US|arin|2017-12-20|AMAZON-02, US
3.23.227.175|16509|3.20.0.0/14|US|arin|2017-12-20|AMAZON-02, US
34.101.247.157|139190|34.101.0.0/16|US|arin|2018-09-28|GOOGLE-AS-AP Google Asia Pacific Pte. Ltd., SG
34.106.53.91|15169|34.104.0.0/14|US|arin|2018-09-28|GOOGLE, US
34.125.112.156|15169|34.124.0.0/14|US|arin|2018-09-28|GOOGLE, US
34.65.190.212|15169|34.64.0.0/14|US|arin|2018-09-28|GOOGLE, US
34.65.239.250|15169|34.64.0.0/14|US|arin|2018-09-28|GOOGLE, US
34.65.37.217|15169|34.64.0.0/14|US|arin|2018-09-28|GOOGLE, US
34.78.14.25|15169|34.76.0.0/14|US|arin|2018-09-28|GOOGLE, US
34.97.246.8|15169|34.97.128.0/17|US|arin|2018-09-28|GOOGLE, US
35.177.228.130|16509|35.176.0.0/15|US|arin|2016-08-09|AMAZON-02, US
35.203.9.43|15169|35.200.0.0/14|US|arin|2017-03-21|GOOGLE, US
35.224.196.150|15169|35.224.0.0/14|US|arin|2017-09-29|GOOGLE, US
37.187.121.67|16276|37.187.0.0/16|FR|ripencc|2012-03-20|OVH, FR
46.136.128.70|12430|46.136.0.0/16|ES|ripencc|2010-11-16|VODAFONE_ES, ES
46.226.108.234|29169|46.226.108.0/22|FR|ripencc|2011-01-21|GANDI-AS Domain name registrar - http://www.gandi.net, FR
46.233.31.4|42431|46.233.0.0/19|BG|ripencc|2011-02-21|B-NET, BG
51.68.204.150|16276|51.68.0.0/16|FR|ripencc|1993-09-01|OVH, FR
51.75.188.112|16276|51.75.0.0/16|FR|ripencc|1993-09-01|OVH, FR
62.138.206.160|61157|62.138.192.0/20|DE|ripencc|2000-09-19|PLUSSERVER-ASN1, DE
66.116.98.78|23005|66.116.98.0/24|US|arin|2004-01-21|SWITCH-LTD, US
66.208.64.128|10352|66.208.64.0/20|US|arin|2006-04-17|WCTC, US
66.42.163.222|6181|66.42.128.0/18|US|arin|2003-05-28|FUSE-NET, US
67.208.195.20|21889|67.208.195.0/24|US|arin|2007-07-18|RAPIDSYSTEMS, US
69.248.146.7|7922|69.240.0.0/12|US|arin|2004-02-11|COMCAST-7922, US
72.134.42.97|20001|72.134.0.0/16|US|arin|2005-08-02|TWC-20001-PACWEST, US
72.238.229.21|33363|72.238.0.0/15|US|arin|2005-04-21|BHN-33363, US
73.119.255.56|7922|73.0.0.0/8|US|arin|2005-04-19|COMCAST-7922, US
77.105.87.97|42621|77.105.64.0/18|FI|ripencc|2006-12-05|LPOK-AS, FI
77.85.204.149|8866|77.85.204.0/24|BG|ripencc|2007-03-19|BTC-AS BULGARIA, BG
8.129.2.25|37963|8.129.0.0/17|SG|apnic|1992-12-01|CNNIC-ALIBABA-CN-NET-AP Hangzhou Alibaba Advertising Co.,Ltd., CN
8.210.92.32|45102|8.210.0.0/17|SG|apnic|1992-12-01|CNNIC-ALIBABA-US-NET-AP Alibaba (US) Technology Co., Ltd., CN
80.221.242.209|1759|80.220.0.0/14|FI|ripencc|2002-03-27|TSF-IP-CORE Telia Finland Oyj, FI
81.169.184.191|6724|81.169.128.0/17|DE|ripencc|2003-04-17|STRATO STRATO AG, DE
82.72.72.221|33915|82.72.0.0/15|NL|ripencc|2003-07-04|TNF-AS, NL
83.137.41.10|31394|83.137.40.0/21|AT|ripencc|2004-05-03|NEMOX-NET-AS, AT
83.220.114.171|12912|83.220.96.0/19|PL|ripencc|2004-04-02|TM, PL
84.22.139.57|33991|84.22.136.0/21|RU|ripencc|2004-09-22|IGRA-SERVICE-AS, RU
84.237.7.249|34479|84.237.0.0/20|RU|ripencc|2004-06-28|TSC-AS High Current Electronics Institute, RU
85.193.135.111|28889|85.193.128.0/20|AT|ripencc|2004-12-17|LINZNET-AS, AT
87.246.46.132|43561|87.246.46.0/23|BG|ripencc|2005-08-25|NET1-AS, BG
88.202.183.8|13213|88.202.176.0/20|GB|ripencc|2005-11-22|UK2NET-AS, GB
89.33.195.95|203523|89.33.195.0/24|RO|ripencc|2005-11-29|VIRTONO-NETWORKS, RO
90.254.224.247|5378|90.252.0.0/14|GB|ripencc|2006-09-08|Vodafone, GB
91.134.145.202|16276|91.134.0.0/16|FR|ripencc|2006-10-30|OVH, FR
91.148.141.211|203380|91.148.141.0/24|BG|ripencc|2006-11-13|DAINTERNATIONALGROUP, GB
91.64.100.35|3209|91.64.0.0/14|DE|ripencc|2006-07-10|VODANET International IP-Backbone of Vodafone, DE
93.177.82.226|213111|93.177.82.0/24|IT|ripencc|2020-06-09|DONE, IT
93.180.116.123|42560|93.180.96.0/19|BA|ripencc|2011-12-01|BA-TELEMACH-AS Telemach d.o.o. Sarajevo, BA
94.112.132.191|16019|94.112.0.0/16|CZ|ripencc|2008-07-09|VODAFONE-CZ-AS, CZ
94.23.220.214|16276|94.23.0.0/16|FR|ripencc|2008-07-15|OVH, FR
94.242.213.105|5577|94.242.213.0/24|LU|ripencc|2008-10-21|ROOT, LU
95.142.173.153|203476|95.142.160.0/20|FR|ripencc|2009-08-04|GANDI-AS-2 Domain name registrar - http://www.gandi.net, FR
95.211.193.12|60781|95.211.0.0/16|NL|ripencc|2009-02-05|LEASEWEB-NL-AMS-01 Netherlands, NL
95.217.105.108|24940|95.217.0.0/16|DE|ripencc|2009-02-24|HETZNER-AS, DE
97.88.196.233|20115|97.88.192.0/19|US|arin|2007-03-21|CHARTER-20115, US
