# bitcoin dns seeds and whois results
IP Address|ASN|BGP Prefix|CC|Registry|Allocated|AS Name
104.62.244.170|7018|104.48.0.0/12|US|arin|2014-05-06|ATT-INTERNET4, US
112.213.179.18|9443|112.213.128.0/18|AU|apnic|2009-02-19|VOCUS-RETAIL-AU Vocus Retail, AU
116.109.78.41|7552|116.109.72.0/21|VN|apnic|2007-05-18|VIETEL-AS-AP Viettel Group, VN
122.57.183.253|4771|122.57.176.0/21|NZ|apnic|2006-11-01|SPARKNZ Spark New Zealand Trading Ltd., NZ
134.101.9.114|44229|134.101.8.0/21|DE|ripencc|1989-05-22|DTST_AS_01, DE
141.156.19.128|701|141.156.0.0/16|US|arin|1990-07-23|UUNET, US
158.58.188.37|57497|158.58.188.0/24|IR|ripencc|2011-11-11|FARASOSAMANEHPASARGAD, IR
172.103.212.229|25668|172.103.128.0/17|CA|arin|2015-06-22|CIPHERKEY, CA
178.79.83.93|3212|178.79.64.0/18|SI|ripencc|2010-05-07|TELEMACH Broadband Access & Carrier Services, SI
18.116.8.190|16509|18.116.0.0/14|US|arin|2019-10-07|AMAZON-02, US
183.84.11.59|23724|183.84.0.0/15|CN|apnic|2009-11-12|CHINANET-IDC-BJ-AP IDC, China Telecommunications Corporation, CN
185.143.45.39|55293|185.143.44.0/22|US|ripencc|2016-03-11|A2HOSTING, US
185.25.48.184|61272|185.25.48.0/22|LT|ripencc|2013-04-29|IST-AS, LT
188.243.116.199|35807|188.242.0.0/15|RU|ripencc|2009-06-23|SKYNET-SPB-AS, RU
193.106.29.98|50297|193.106.28.0/22|UA|ripencc|2009-11-30|INFIUM, UA
193.119.116.220|7545|193.119.112.0/20|AU|apnic|1994-06-09|TPG-INTERNET-AP TPG Telecom Limited, AU
194.219.62.23|1241|194.219.0.0/17|GR|ripencc|1995-12-20|FORTHNET-GR Forthnet, EU
198.48.228.109|5645|198.48.128.0/17|CA|arin|2013-03-04|TEKSAVVY, CA
2.28.44.209|12576|2.28.0.0/16|GB|ripencc|2010-09-21|EE Ltd, GB
204.12.207.91|32097|204.12.192.0/18|US|arin|2009-06-08|WII, US
206.123.128.176|396362|206.123.128.0/24|US|arin|2015-03-09|LEASEWEB-USA-NYC-11, US
206.189.222.161|14061|206.189.208.0/20|US|arin|1995-11-15|DIGITALOCEAN-ASN, US
209.240.50.128|36515|209.240.48.0/20|US|arin|2005-09-09|ASN-ALLENS, US
213.239.220.183|24940|213.239.192.0/18|DE|ripencc|2003-05-28|HETZNER-AS, DE
217.95.169.221|3320|217.80.0.0/12|DE|ripencc|2000-10-26|DTAG Internet service provider operations, DE
3.8.101.76|16509|3.8.0.0/14|US|arin|2017-12-20|AMAZON-02, US
31.164.229.141|6730|31.164.0.0/15|CH|ripencc|2011-02-23|SUNRISE, CH
34.101.110.211|139190|34.101.0.0/16|US|arin|2018-09-28|GOOGLE-AS-AP Google Asia Pacific Pte. Ltd., SG
34.229.46.133|14618|34.224.0.0/12|US|arin|2016-09-12|AMAZON-AES, US
34.96.233.167|15169|34.96.128.0/17|US|arin|2018-09-28|GOOGLE, US
37.187.7.118|16276|37.187.0.0/16|FR|ripencc|2012-03-20|OVH, FR
47.106.161.182|37963|47.106.0.0/16|CN|apnic|1989-01-06|CNNIC-ALIBABA-CN-NET-AP Hangzhou Alibaba Advertising Co.,Ltd., CN
47.185.245.192|5650|47.184.0.0/14|US|arin|2015-08-28|FRONTIER-FRTR, US
5.9.5.171|24940|5.9.0.0/16|DE|ripencc|2012-04-25|HETZNER-AS, DE
50.125.90.245|20055|50.125.0.0/16|US|arin|2011-09-06|AS-WHOLESAIL, US
51.146.153.240|5607|51.146.0.0/16|GB|ripencc|1993-09-01|BSKYB-BROADBAND-AS, GB
64.201.87.233|21555|64.201.80.0/21|US|arin|2007-01-09|LHTC, US
64.98.72.92|32133|64.98.64.0/20|CA|arin|2000-05-18|AS-TING-BACKBONE, US
70.59.87.42|209|70.59.64.0/19|US|arin|2004-06-18|CENTURYLINK-US-LEGACY-QWEST, US
80.36.22.198|3352|80.36.0.0/16|ES|ripencc|2001-11-12|TELEFONICA_DE_ESPANA, ES
81.10.227.233|12605|81.10.128.0/17|AT|ripencc|2002-04-16|LIWEST-AT Linz, Austria, AT
86.98.127.249|5384|86.98.64.0/18|AE|ripencc|2005-04-20|EMIRATES-INTERNET Emirates Internet, AE
87.123.34.166|8881|87.123.32.0/20|DE|ripencc|2005-07-27|VERSATEL, DE
92.33.191.207|2119|92.32.0.0/14|SE|ripencc|2007-11-28|TELENOR-NEXTEL Telenor Norge AS, NO
94.158.246.183|39798|94.158.246.0/24|MD|ripencc|2018-08-28|MIVOCLOUD, MD
95.208.141.57|3209|95.208.128.0/17|DE|ripencc|2009-01-29|VODANET International IP-Backbone of Vodafone, DE
