# bitcoin dns seeds and whois results
IP Address|ASN|BGP Prefix|CC|Registry|Allocated|AS Name
1.20.201.23|23969|1.20.201.0/24|TH|apnic|2011-04-04|TOT-NET TOT Public Company Limited, TH
103.150.0.243|135902|103.150.0.0/23|VN|apnic|2020-03-30|HAHALOLO-AS-VN Hahalolo Travel Social Network Joint Stock Company, VN
103.99.168.140|54415|103.99.168.0/24|JP|apnic|2017-08-28|WIZ-JP-AS-AP WIZ K.K., JP
119.3.208.236|55990|119.3.192.0/19|CN|apnic|2007-11-26|HWCSNET Huawei Cloud Service data center, CN
121.99.210.213|9790|121.98.0.0/15|NZ|apnic|2010-08-26|VOCUSGROUPNZ VocusGroup, NZ
122.199.38.71|38195|122.199.36.0/22|AU|apnic|2006-09-19|SUPERLOOP-AS-AP Superloop, AU
124.197.62.103|9790|124.197.0.0/18|NZ|apnic|2006-04-12|VOCUSGROUPNZ VocusGroup, NZ
13.115.95.157|16509|13.112.0.0/14|US|arin|2016-08-09|AMAZON-02, US
13.209.125.83|16509|13.209.0.0/16|US|arin|2019-10-01|AMAZON-02, US
13.231.190.71|16509|13.230.0.0/15|US|arin|2019-10-01|AMAZON-02, US
13.53.170.167|16509|13.53.0.0/16|US|arin|2020-08-05|AMAZON-02, US
131.203.254.122|9503|131.203.128.0/17|NZ|apnic|1989-01-16|FX-PRIMARY-AS FX Networks Limited, NZ
136.243.42.156|24940|136.243.0.0/16|DE|ripencc|2004-04-14|HETZNER-AS, DE
157.230.229.244|14061|157.230.224.0/20|US|arin|2018-08-22|DIGITALOCEAN-ASN, US
158.69.245.223|16276|158.69.0.0/16|CA|arin|2015-06-15|OVH, FR
158.69.72.5|16276|158.69.0.0/16|CA|arin|2015-06-15|OVH, FR
159.100.248.234|61098|159.100.248.0/21|CH|ripencc|1992-03-31|EXOSCALE, CH
159.89.104.55|14061|159.89.96.0/20|US|arin|2017-07-07|DIGITALOCEAN-ASN, US
161.97.168.188|51167|161.97.160.0/20|DE|ripencc|1992-06-23|CONTABO, DE
167.99.52.178|14061|167.99.48.0/20|US|arin|2017-11-10|DIGITALOCEAN-ASN, US
170.250.84.130|23089|170.250.0.0/17|US|arin|2015-11-02|HOTWIRE-COMMUNICATIONS, US
171.101.218.95|17552|171.101.192.0/18|TH|apnic|2011-03-07|TRUEONLINE-AS-AP True Online, TH
172.221.233.146|20115|172.221.128.0/17|US|arin|2012-06-22|CHARTER-20115, US
173.33.167.212|812|173.32.0.0/14|CA|arin|2008-08-06|ROGERS-COMMUNICATIONS, CA
173.82.106.240|35916|173.82.0.0/16|US|arin|2008-11-14|MULTA-ASN1, US
174.20.86.79|209|174.20.0.0/16|US|arin|2009-02-17|CENTURYLINK-US-LEGACY-QWEST, US
176.223.139.243|62282|176.223.128.0/20|LT|ripencc|2011-11-29|RACKRAY UAB Rakrejus, LT
176.9.78.227|24940|176.9.0.0/16|DE|ripencc|2011-05-17|HETZNER-AS, DE
178.79.83.93|3212|178.79.64.0/18|SI|ripencc|2010-05-07|TELEMACH Broadband Access & Carrier Services, SI
179.235.222.78|28573|179.235.192.0/19|BR|lacnic|2012-11-14|CLARO S.A., BR
18.162.133.34|16509|18.162.0.0/16|US|arin|2019-10-07|AMAZON-02, US
184.144.210.178|577|184.144.0.0/16|CA|arin|2010-04-12|BACOM, CA
184.162.61.208|5769|184.162.0.0/18|CA|arin|2010-06-21|VIDEOTRON, CA
185.73.203.169|61135|185.73.203.0/24|TR|ripencc|2014-10-20|COMNET-DATACENTER-ISTANBUL, TR
187.170.246.249|8151|187.170.240.0/20|MX|lacnic|2010-03-02|Uninet S.A. de C.V., MX
188.134.8.36|41733|188.134.0.0/17|RU|ripencc|2009-04-27|ZTELECOM-AS, RU
188.210.50.32|42652|188.210.0.0/18|DE|ripencc|2009-05-08|DELUNET, DE
188.27.94.231|8708|188.27.0.0/16|RO|ripencc|2009-02-11|RCS-RDS 73-75 Dr. Staicovici, RO
188.35.167.14|34123|188.35.0.0/16|RU|ripencc|2009-03-31|NETORN-AS, RU
189.39.6.82|16735|189.39.0.0/18|BR|lacnic|2007-05-18|ALGAR TELECOM S/A, BR
190.195.235.56|7303|190.194.0.0/15|AR|lacnic|2010-05-11|Telecom Argentina S.A., AR
190.220.16.92|19037|190.220.0.0/17|AR|lacnic|2007-10-30|AMX Argentina S.A., AR
193.138.218.72|39351|193.138.216.0/22|SE|ripencc|2006-02-06|ESAB-AS, SE
193.164.140.88|41427|193.164.140.0/24|SI|ripencc|2006-08-18|MARC-NET_AS, SI
194.14.246.205|50066|194.14.246.0/24|SE|ripencc|1993-12-09|SRSTUBES-AS, SE
195.211.161.124|44341|195.211.161.0/24|RU|ripencc|2009-10-20|SEVONLINE, RU
198.12.14.136|40065|198.12.14.0/24|US|arin|2012-10-29|CNSERVERS, US
206.189.217.82|14061|206.189.208.0/20|US|arin|1995-11-15|DIGITALOCEAN-ASN, US
206.189.222.161|14061|206.189.208.0/20|US|arin|1995-11-15|DIGITALOCEAN-ASN, US
209.58.145.157|394380|209.58.144.0/20|US|arin|1999-04-29|LEASEWEB-USA-DAL-10, US
24.132.27.107|33915|24.132.0.0/17|NL|ripencc|1997-10-13|TNF-AS, NL
24.237.96.82|8047|24.237.0.0/16|US|arin|1997-10-14|GCI, US
24.54.135.34|4181|24.54.135.0/24|US|arin|2009-04-28|TDS-AS, US
27.255.79.116|45382|27.255.79.0/24|KR|apnic|2010-06-22|EHOSTIDC-AS-KR EHOSTICT, KR
3.124.117.151|16509|3.124.0.0/14|US|arin|2017-12-20|AMAZON-02, US
3.16.1.181|16509|3.16.0.0/14|US|arin|2017-12-20|AMAZON-02, US
3.249.42.217|16509|3.248.0.0/13|US|arin|2018-06-25|AMAZON-02, US
31.13.10.129|197784|31.13.8.0/21|SE|ripencc|2011-04-18|EDGEIP-AS, SE
31.132.17.56|57294|31.132.16.0/20|CZ|ripencc|2011-06-16|INTERNET_EXPERT_, CZ
31.42.184.85|30860|31.42.184.0/23|UA|ripencc|2011-02-23|YURTEH-AS, UA
34.101.72.24|139190|34.101.0.0/16|US|arin|2018-09-28|GOOGLE-AS-AP Google Asia Pacific Pte. Ltd., SG
34.74.205.75|15169|34.72.0.0/14|US|arin|2018-09-28|GOOGLE, US
34.83.108.62|15169|34.80.0.0/14|US|arin|2018-09-28|GOOGLE, US
34.94.120.32|15169|34.92.0.0/14|US|arin|2018-09-28|GOOGLE, US
34.97.142.205|15169|34.97.128.0/17|US|arin|2018-09-28|GOOGLE, US
34.97.78.39|15169|34.97.0.0/17|US|arin|2018-09-28|GOOGLE, US
35.177.228.130|16509|35.176.0.0/15|US|arin|2016-08-09|AMAZON-02, US
35.181.8.232|16509|35.181.0.0/16|US|arin|2016-08-09|AMAZON-02, US
35.203.41.106|15169|35.200.0.0/14|US|arin|2017-03-21|GOOGLE, US
35.244.108.75|15169|35.244.0.0/14|US|arin|2017-09-29|GOOGLE, US
37.135.146.127|12479|37.135.146.0/23|ES|ripencc|2012-02-21|UNI2-AS, ES
37.59.38.74|16276|37.59.0.0/16|FR|ripencc|2012-01-16|OVH, FR
39.107.234.140|37963|39.106.0.0/15|CN|apnic|2011-04-05|CNNIC-ALIBABA-CN-NET-AP Hangzhou Alibaba Advertising Co.,Ltd., CN
39.97.231.198|37963|39.96.0.0/14|CN|apnic|2011-04-05|CNNIC-ALIBABA-CN-NET-AP Hangzhou Alibaba Advertising Co.,Ltd., CN
45.128.190.21|43633|45.128.188.0/22|UA|ripencc|2019-07-12|UA-GIGABIT, UA
45.155.157.239|206238|45.155.156.0/23|AE|ripencc|2019-09-18|FREEDOMINTERNET, NL
45.44.244.58|54198|45.44.244.0/22|CA|arin|2015-02-09|VIANET, CA
46.182.230.59|3212|46.182.224.0/21|SI|ripencc|2010-11-29|TELEMACH Broadband Access & Carrier Services, SI
46.4.88.46|24940|46.4.0.0/16|DE|ripencc|2010-08-19|HETZNER-AS, DE
47.108.30.126|37963|47.108.0.0/16|CN|apnic|1989-01-06|CNNIC-ALIBABA-CN-NET-AP Hangzhou Alibaba Advertising Co.,Ltd., CN
47.54.212.200|855|47.54.212.0/22|CA|arin|2012-04-09|CANET-ASN-4, CA
49.177.103.146|4804|49.177.64.0/18|AU|apnic|2010-12-02|MPX-AS Microplex PTY LTD, AU
5.188.119.196|49505|5.188.119.0/24|RU|ripencc|2012-08-09|SELECTEL, RU
5.196.167.44|16276|5.196.0.0/16|FR|ripencc|2012-08-23|OVH, FR
58.138.8.170|2497|58.138.0.0/17|JP|apnic|2005-05-24|IIJ Internet Initiative Japan Inc., JP
59.110.12.12|37963|59.110.0.0/17|CN|apnic|2006-09-19|CNNIC-ALIBABA-CN-NET-AP Hangzhou Alibaba Advertising Co.,Ltd., CN
69.119.193.9|6128|69.116.0.0/14|US|arin|2004-01-15|CABLE-NET-1, US
69.130.201.27|4181|69.130.201.0/24|US|arin|2003-03-25|TDS-AS, US
69.14.185.9|12083|69.14.184.0/22|US|arin|2002-12-09|WOW-INTERNET, US
71.146.114.111|7018|71.146.0.0/15|US|arin|2005-01-11|ATT-INTERNET4, US
71.89.202.116|20115|71.89.192.0/19|US|arin|2005-05-19|CHARTER-20115, US
72.29.91.40|33182|72.29.64.0/19|US|arin|2005-01-26|DIMENOC, US
72.78.238.89|701|72.78.0.0/16|US|arin|2005-06-24|UUNET, US
73.83.103.79|7922|73.0.0.0/8|US|arin|2005-04-19|COMCAST-7922, US
74.118.137.119|20326|74.118.137.0/24|US|arin|2009-10-12|TERASWITCH, US
74.196.114.247|19108|74.196.96.0/19|US|arin|2006-09-27|SUDDENLINK-COMMUNICATIONS, US
76.11.60.155|32233|76.11.48.0/20|CA|arin|2007-02-23|PERSONA, CA
77.52.178.235|21497|77.52.128.0/17|UA|ripencc|2007-01-17|UMC-AS, UA
8.209.82.155|45102|8.209.64.0/19|SG|apnic|1992-12-01|CNNIC-ALIBABA-US-NET-AP Alibaba (US) Technology Co., Ltd., CN
80.235.34.231|3249|80.235.0.0/17|EE|ripencc|2001-10-11|ESTPAK, EE
80.36.22.198|3352|80.36.0.0/16|ES|ripencc|2001-11-12|TELEFONICA_DE_ESPANA, ES
83.128.33.140|15435|83.128.0.0/16|NL|ripencc|2004-01-05|KABELFOON DELTA Fiber Nederland, NL
84.212.251.204|41164|84.212.240.0/20|NO|ripencc|2005-07-07|GET-NO GET Norway, NO
85.193.135.111|28889|85.193.128.0/20|AT|ripencc|2004-12-17|LINZNET-AS, AT
85.195.54.110|35706|85.195.0.0/18|SE|ripencc|2005-01-04|NAO, SE
85.228.232.171|2119|85.224.0.0/13|SE|ripencc|2004-12-17|TELENOR-NEXTEL Telenor Norge AS, NO
87.117.3.8|21479|87.117.0.0/19|RU|ripencc|2005-09-20|ROSTOV-TELEGRAF-AS, RU
88.99.38.113|24940|88.99.0.0/16|DE|ripencc|2005-08-03|HETZNER-AS, DE
92.4.158.173|13285|92.4.0.0/15|GB|ripencc|2007-06-28|OPALTELECOM-AS TalkTalk Communications Limited, GB
94.102.125.136|29124|94.102.112.0/20|RU|ripencc|2008-09-04|ISKRATELECOM-AS SEVEN-SKY, RU
94.154.159.99|62240|94.154.159.0/24|GB|ripencc|2018-11-22|CLOUVIDER Clouvider - Global ASN, GB
94.176.233.124|62282|94.176.232.0/21|LT|ripencc|2008-08-14|RACKRAY UAB Rakrejus, LT
94.242.213.105|5577|94.242.213.0/24|LU|ripencc|2008-10-21|ROOT, LU
95.105.186.195|15962|95.105.128.0/17|SK|ripencc|2008-12-01|OSK-DNI Slovakia, SK
95.116.199.3|6805|95.112.0.0/13|DE|ripencc|2008-11-26|TDDE-ASN1, DE
95.216.78.249|24940|95.216.0.0/16|DE|ripencc|2009-02-24|HETZNER-AS, DE
98.11.217.172|11351|98.10.0.0/15|US|arin|2007-01-29|TWC-11351-NORTHEAST, US
