# bitcoin dns seeds and whois results
IP Address|ASN|BGP Prefix|CC|Registry|Allocated|AS Name
103.57.202.84|136209|103.57.202.0/24|HK|apnic|2015-05-20|BN-AS-KR Korea Fast Networks, KR
104.180.195.209|7018|104.176.0.0/12|US|arin|2014-08-12|ATT-INTERNET4, US
106.157.214.199|2516|106.128.0.0/11|JP|apnic|2011-03-15|KDDI KDDI CORPORATION, JP
120.24.70.214|37963|120.24.0.0/16|CN|apnic|2008-03-12|CNNIC-ALIBABA-CN-NET-AP Hangzhou Alibaba Advertising Co.,Ltd., CN
122.199.37.252|38195|122.199.36.0/22|AU|apnic|2006-09-19|SUPERLOOP-AS-AP Superloop, AU
13.230.73.66|16509|13.230.0.0/15|US|arin|2019-10-01|AMAZON-02, US
149.248.3.82|20473|149.248.0.0/19|US|arin|2018-07-03|AS-CHOOPA, US
157.90.183.39|24940|157.90.0.0/16|DE|ripencc|1996-12-16|HETZNER-AS, DE
159.65.132.97|14061|159.65.128.0/20|US|arin|2017-10-24|DIGITALOCEAN-ASN, US
161.97.129.105|51167|161.97.128.0/19|DE|ripencc|1992-06-23|CONTABO, DE
161.97.84.78|51167|161.97.84.0/23|DE|ripencc|1992-06-23|CONTABO, DE
162.62.18.226|132203|162.62.18.0/23|SG|apnic|1992-08-11|TENCENT-NET-AP-CN Tencent Building, Kejizhongyi Avenue, CN
176.99.2.207|197695|176.99.2.0/24|RU|ripencc|2012-06-26|AS-REG, RU
178.79.83.93|3212|178.79.64.0/18|SI|ripencc|2010-05-07|TELEMACH Broadband Access & Carrier Services, SI
178.90.69.203|9198|178.90.68.0/22|KZ|ripencc|2009-11-26|KAZTELECOM-AS, KZ
185.56.81.8|200699|185.56.81.0/24|SC|ripencc|2014-05-01|Datashield, Inc., SC
188.68.53.44|197540|188.68.48.0/21|DE|ripencc|2009-08-25|NETCUP-AS netcup GmbH, DE
194.146.200.51|42574|194.146.200.0/24|RU|ripencc|2008-07-08|NSPLUS-AS, RU
2.153.80.222|12430|2.152.0.0/14|ES|ripencc|2010-11-03|VODAFONE_ES, ES
207.244.227.33|40021|207.244.224.0/20|US|arin|2021-05-07|CONTABO, US
207.6.232.94|852|207.6.0.0/16|CA|arin|1995-12-21|TELUS Communications, CA
212.83.35.173|47447|212.83.32.0/19|DE|ripencc|2008-06-24|TTM, DE
217.197.177.87|20845|217.197.176.0/20|HU|ripencc|2004-10-25|DIGICABLE, HU
27.109.178.21|4609|27.109.160.0/19|MO|apnic|2010-06-10|CTM-MO Companhia de Telecomunicacoes de Macau SARL, MO
34.92.95.72|15169|34.92.0.0/14|US|arin|2018-09-28|GOOGLE, US
35.184.149.162|15169|35.184.128.0/19|US|arin|2016-10-11|GOOGLE, US
35.229.223.156|15169|35.228.0.0/14|US|arin|2017-09-29|GOOGLE, US
37.220.109.238|47264|37.220.109.0/24|GB|ripencc|2012-04-03|LDEX, GB
45.151.125.239|212663|45.151.125.0/24|PL|ripencc|2019-09-10|REMOTE-ADMIN-AS, PL
46.175.178.3|56427|46.175.176.0/21|CZ|ripencc|2011-02-17|ASHRADIL, CZ
47.254.178.15|45102|47.254.160.0/19|US|arin|2016-04-15|CNNIC-ALIBABA-US-NET-AP Alibaba (US) Technology Co., Ltd., CN
47.89.242.60|45102|47.89.240.0/22|US|arin|2015-05-18|CNNIC-ALIBABA-US-NET-AP Alibaba (US) Technology Co., Ltd., CN
47.90.243.31|45102|47.90.192.0/18|US|arin|2015-05-18|CNNIC-ALIBABA-US-NET-AP Alibaba (US) Technology Co., Ltd., CN
49.12.85.232|24940|49.12.0.0/16|DE|ripencc|2010-10-21|HETZNER-AS, DE
49.177.103.146|4804|49.177.64.0/18|AU|apnic|2010-12-02|MPX-AS Microplex PTY LTD, AU
5.79.75.28|60781|5.79.64.0/18|NL|ripencc|2012-06-14|LEASEWEB-NL-AMS-01 Netherlands, NL
51.15.185.78|12876|51.15.0.0/16|FR|ripencc|1993-09-01|Online SAS, FR
67.210.228.203|7819|67.210.224.0/21|US|arin|2007-08-22|GLOBAL-IP-NETWORKS, US
67.80.164.152|6128|67.80.0.0/14|US|arin|2001-11-09|CABLE-NET-1, US
78.125.82.240|8228|78.112.0.0/12|FR|ripencc|2007-05-03|CEGETEL-AS, FR
78.43.208.25|3209|78.43.0.0/16|DE|ripencc|2007-03-23|VODANET International IP-Backbone of Vodafone, DE
84.202.105.246|2119|84.202.0.0/16|NO|ripencc|2004-05-13|TELENOR-NEXTEL Telenor Norge AS, NO
88.84.222.252|21453|88.84.192.0/19|RU|ripencc|2006-01-23|FLEX-AS, RU
91.32.226.32|3320|91.0.0.0/10|DE|ripencc|2006-07-03|DTAG Internet service provider operations, DE
95.217.195.91|24940|95.217.0.0/16|DE|ripencc|2009-02-24|HETZNER-AS, DE
95.217.201.184|24940|95.217.0.0/16|DE|ripencc|2009-02-24|HETZNER-AS, DE
