# https://chainz.cryptoid.info/ and whois results
# CannabisCoin
IP Address|Subver|Version|ASN|BGP Prefix|CC|Registry|Allocated|AS Name
104.14.80.61|/Cannabiscoin:0.13.2/|70019|7018|104.0.0.0/12|US|arin|2014-01-16|ATT-INTERNET4, US
107.181.180.166|/Cannabiscoin:0.13.1/|70019|46562|107.181.180.0/24|US|arin|2014-02-14|PERFORMIVE, US
108.191.192.253|/Cannabiscoin:0.13.1/|70019|33363|108.188.0.0/14|US|arin|2012-10-03|BHN-33363, US
109.184.130.76|/Cannabiscoin:0.13.2/|70019|12389|109.184.128.0/17|RU|ripencc|2009-10-05|ROSTELECOM-AS, RU
116.202.251.195|/Cannabiscoin:0.8.9/|70017|24940|116.202.0.0/16|DE|ripencc|2011-01-17|HETZNER-AS, DE
120.159.251.6|/Cannabiscoin:0.13.2/|70019|135887|120.159.250.0/23|AU|apnic|2009-04-20|TELSTRA-BELONG-AP Belong (Telstra Corporation), AU
136.24.44.100|/Cannabiscoin:0.13.1/|70019|19165|136.24.0.0/16|US|arin|2016-10-31|WEBPASS, US
137.135.18.91|/Cannabiscoin:0.13.1/|70019|8075|137.135.0.0/16|US|arin|2011-06-22|MICROSOFT-CORP-MSN-AS-BLOCK, US
138.68.254.94|/Cannabiscoin:0.13.2/|70019|14061|138.68.240.0/20|US|arin|2016-01-26|DIGITALOCEAN-ASN, US
144.91.77.184|/Cannabiscoin:0.13.2/|70019|51167|144.91.76.0/23|DE|ripencc|1990-11-20|CONTABO, DE
155.138.151.42|/Cannabiscoin:0.13.2/|70019|20473|155.138.128.0/19|US|arin|2018-12-05|AS-CHOOPA, US
157.90.181.171|/Cannabiscoin:0.13.2/|70019|24940|157.90.0.0/16|DE|ripencc|1996-12-16|HETZNER-AS, DE
166.175.186.127|/Cannabiscoin:0.8.9/|70017|20057|166.175.184.0/22|US|arin|1993-07-09|ATT-MOBILITY-LLC-AS20057, US
167.86.116.187|/Cannabiscoin:0.13.1/|70019|51167|167.86.116.0/23|DE|ripencc|1993-05-14|CONTABO, DE
173.237.207.43|/Cannabiscoin:0.13.1/|70019|26527|173.237.207.0/24|US|arin|2011-01-12|LIGHTWAVE-NETWORKS, US
173.63.177.136|/Cannabiscoin:0.13.1/|70019|701|173.63.0.0/16|US|arin|2008-10-09|UUNET, US
174.109.193.250|/Cannabiscoin:0.13.1/|70019|11426|174.108.0.0/14|US|arin|2009-02-26|TWC-11426-CAROLINAS, US
174.52.23.199|/Cannabiscoin:0.13.2/|70019|7922|174.48.0.0/12|US|arin|2008-11-18|COMCAST-7922, US
178.218.113.44|/Cannabiscoin:0.13.2/|70019|49403|178.218.112.0/20|RU|ripencc|2010-04-13|AVK-WELLCOM-AS, RU
178.63.9.83|/Cannabiscoin:0.13.2/|70019|24940|178.63.0.0/16|DE|ripencc|2010-03-02|HETZNER-AS, DE
178.79.78.142|/Cannabiscoin:0.13.1/|70019|3212|178.79.64.0/18|SI|ripencc|2010-05-07|TELEMACH Broadband Access & Carrier Services, SI
185.219.6.253|/Cannabiscoin:0.13.1/|70019|44854|185.219.6.0/24|NL|ripencc|2020-11-24|ERITAP-AS, NL
186.28.61.120|/Cannabiscoin:0.13.1/|70019|19429|186.28.48.0/20|CO|lacnic|2009-02-25|ETB - Colombia, CO
186.29.4.249|/Cannabiscoin:0.13.1/|70019|19429|186.29.0.0/16|CO|lacnic|2009-06-08|ETB - Colombia, CO
188.162.140.128|/Cannabiscoin:0.13.2/|70019|31163|188.162.140.0/24|RU|ripencc|2009-05-20|MF-KAVKAZ-AS, RU
189.202.90.171|/Cannabiscoin:0.13.2/|70019|28554|189.202.90.0/23|MX|lacnic|2008-03-03|Cablemas Telecomunicaciones SA de CV, MX
190.2.131.205|/Cannabiscoin:0.13.1/|70019|49981|190.2.128.0/20|CW|lacnic|2006-04-28|WORLDSTREAM, NL
190.96.1.19|/Cannabiscoin:0.13.1/|70019|18822|190.96.1.0/24|CL|lacnic|2007-07-19|Manquehuenet, CL
192.222.229.98|/Cannabiscoin:0.13.1/|70019|1403|192.222.224.0/19|CA|arin|2012-12-20|EBOX, CA
192.252.222.35|/Cannabiscoin:0.13.2/|70019|46562|192.252.222.0/24|US|arin|2013-07-03|PERFORMIVE, US
192.252.234.148|/Cannabiscoin:0.13.1/|70019|5645|192.252.224.0/20|CA|arin|2013-07-05|TEKSAVVY, CA
194.160.80.214|/Cannabiscoin:0.13.1/|70019|2607|194.160.0.0/16|SK|ripencc|1995-05-03|SANET Slovak Academic Network, SK
195.201.176.91|/Satoshi:0.8.7.1/|70015|24940|195.201.0.0/16|DE|ripencc|1997-09-22|HETZNER-AS, DE
197.185.106.7|/Cannabiscoin:0.13.1/|70019|37105|197.185.104.0/22|ZA|afrinic|2012-12-06|rain, ZA
2.223.127.130|/Cannabiscoin:0.13.1/|70019|5607|2.216.0.0/13|GB|ripencc|2010-12-03|BSKYB-BROADBAND-AS, GB
2.60.120.162|/Cannabiscoin:0.13.1/|70019|12389|2.60.0.0/16|RU|ripencc|2010-10-08|ROSTELECOM-AS, RU
212.62.35.158|/Cannabiscoin:0.13.2/|70019|13091|212.62.32.0/19|RS|ripencc|1999-03-01|PTT-SRBIJA-NET, RS
213.24.126.139|/Cannabiscoin:0.13.1/|70019|12389|213.24.126.0/23|RU|ripencc|1999-07-12|ROSTELECOM-AS, RU
217.241.181.97|/Cannabiscoin:0.13.1/|70019|3320|217.224.0.0/11|DE|ripencc|2001-04-04|DTAG Internet service provider operations, DE
220.244.158.210|/Cannabiscoin:0.13.2/|70019|7545|220.244.158.0/24|AU|apnic|2003-06-18|TPG-INTERNET-AP TPG Telecom Limited, AU
221.122.37.71|/Cannabiscoin:0.13.1/|70019|23724|221.122.32.0/20|CN|apnic|2003-07-07|CHINANET-IDC-BJ-AP IDC, China Telecommunications Corporation, CN
222.252.6.58|/Cannabiscoin:0.13.1/|70019|45899|222.252.0.0/20|VN|apnic|2004-05-18|VNPT-AS-VN VNPT Corp, VN
23.17.151.74|/Cannabiscoin:0.13.2/|70019|852|23.17.0.0/16|CA|arin|2011-09-29|TELUS Communications, CA
31.25.241.224|/Cannabiscoin:0.13.1/|70019|39741|31.25.241.0/24|RU|ripencc|2011-03-10|DCE-AS, RU
31.4.242.240|/Cannabiscoin:0.13.1/|70019|12430|31.4.0.0/16|ES|ripencc|2011-04-07|VODAFONE_ES, ES
37.201.7.210|/Cannabiscoin:0.13.2/|70019|3209|37.201.0.0/17|DE|ripencc|2012-03-22|VODANET International IP-Backbone of Vodafone, DE
37.213.12.21|/Cannabiscoin:0.13.1/|70019|6697|37.212.0.0/14|BY|ripencc|2012-03-30|BELPAK-AS BELPAK, BY
37.29.40.113|/Cannabiscoin:0.13.1/|70019|31133|37.29.40.0/24|RU|ripencc|2011-12-30|MF-MGSM-AS PJSC MegaFon, RU
45.36.201.60|/Cannabiscoin:0.13.1/|70019|11426|45.36.0.0/15|US|arin|2015-02-11|TWC-11426-CAROLINAS, US
46.48.229.158|/Cannabiscoin:0.13.1/|70019|12389|46.48.224.0/19|RU|ripencc|2010-06-25|ROSTELECOM-AS, RU
47.156.124.205|/Cannabiscoin:0.13.2/|70019|5650|47.156.0.0/16|US|arin|2015-08-28|FRONTIER-FRTR, US
47.35.165.35|/Cannabiscoin:0.13.1/|70019|20115|47.35.128.0/18|US|arin|2014-12-23|CHARTER-20115, US
49.228.51.218|/Cannabiscoin:0.13.1/|70019|133481|49.228.48.0/22|TH|apnic|2010-11-25|AIS-FIBRE-AS-AP AIS Fibre, TH
5.13.12.58|/Cannabiscoin:0.13.1/|70019|8708|5.12.0.0/14|RO|ripencc|2012-04-27|RCS-RDS 73-75 Dr. Staicovici, RO
5.188.104.245|/Cannabiscoin:0.13.1/|70019|199860|5.188.104.0/23|RU|ripencc|2012-08-09|SDN-AS, RU
5.29.145.52|/Cannabiscoin:0.13.1/|70019|12849|5.29.144.0/23|IL|ripencc|2012-05-08|HOTNET-IL AMS-IX Admin LAN, IL
51.38.57.53|/Cannabiscoin:0.13.2/|70019|16276|51.38.0.0/16|FR|ripencc|1993-09-01|OVH, FR
51.68.204.201|/Cannabiscoin:0.13.1/|70019|16276|51.68.0.0/16|FR|ripencc|1993-09-01|OVH, FR
52.39.232.122|/Cannabiscoin:0.13.1/|70019|16509|52.36.0.0/14|US|arin|1991-12-19|AMAZON-02, US
66.151.242.154|/Cannabiscoin:0.13.1/|70019|63018|66.151.242.0/24|US|arin|2001-07-13|DEDICATED, US
67.247.20.96|/Cannabiscoin:0.13.1/|70019|12271|67.247.0.0/18|US|arin|2008-02-27|TWC-12271-NYC, US
68.47.241.193|/Cannabiscoin:0.13.1/|70019|7922|68.32.0.0/11|US|arin|2001-11-29|COMCAST-7922, US
69.174.145.103|/Cannabiscoin:0.13.1/|70019|30600|69.174.128.0/19|US|arin|2009-04-29|AS-CMN, US
69.243.12.120|/Cannabiscoin:0.13.1/|70019|7922|69.240.0.0/12|US|arin|2004-02-11|COMCAST-7922, US
69.76.51.197|/Cannabiscoin:0.13.2/|70019|10796|69.76.48.0/20|US|arin|2003-09-08|TWC-10796-MIDWEST, US
70.120.101.31|/Cannabiscoin:0.13.1/|70019|11427|70.120.0.0/17|US|arin|2004-09-17|TWC-11427-TEXAS, US
70.237.26.150|/Cannabiscoin:0.13.2/|70019|7018|70.237.0.0/17|US|arin|2005-03-22|ATT-INTERNET4, US
72.19.39.147|/Cannabiscoin:0.13.1/|70019|25840|72.19.32.0/21|US|arin|2006-03-03|CASCADE-ACCESS-LLC-CA-ESTOR1, US
72.196.131.123|/Cannabiscoin:0.13.1/|70019|22773|72.196.128.0/20|US|arin|2005-08-03|ASN-CXA-ALL-CCI-22773-RDC, US
73.130.44.170|/Cannabiscoin:0.13.2/|70019|7922|73.0.0.0/8|US|arin|2005-04-19|COMCAST-7922, US
73.62.212.209|/Cannabiscoin:0.13.2/|70019|7922|73.0.0.0/8|US|arin|2005-04-19|COMCAST-7922, US
75.146.49.210|/Cannabiscoin:0.13.1/|70019|7922|75.144.0.0/13|US|arin|2006-09-25|COMCAST-7922, US
78.29.32.227|/Cannabiscoin:0.13.1/|70019|8369|78.29.32.0/19|RU|ripencc|2007-09-20|INTERSVYAZ-AS 38-B, Komsomolsky prospekt, RU
78.56.78.115|/Cannabiscoin:0.13.1/|70019|8764|78.56.64.0/20|LT|ripencc|2007-03-21|TELIA-LIETUVA, LT
79.111.14.246|/Cannabiscoin:0.13.2/|70019|12714|79.111.0.0/16|RU|ripencc|2008-02-15|TI-AS Moscow, Russia, RU
8.26.180.4|/Satoshi:0.8.7/|70014|13335|8.26.180.0/24|US|arin|1992-12-01|CLOUDFLARENET, US
80.65.23.139|/Cannabiscoin:0.13.1/|70019|31257|80.65.16.0/21|RU|ripencc|2004-03-18|ORIONNET-KRK, RU
83.221.211.116|/Cannabiscoin:0.13.0/|70018|21479|83.221.192.0/19|RU|ripencc|2004-04-15|ROSTOV-TELEGRAF-AS, RU
83.46.10.63|/Cannabiscoin:0.13.1/|70019|3352|83.46.0.0/16|ES|ripencc|2003-12-02|TELEFONICA_DE_ESPANA, ES
85.15.179.171|/Cannabiscoin:0.13.1/|70019|12389|85.15.128.0/18|RU|ripencc|2005-04-26|ROSTELECOM-AS, RU
85.19.25.38|/Cannabiscoin:0.13.2/|70019|25400|85.19.0.0/16|NO|ripencc|2005-03-16|TELIA-NORWAY-AS Telia Norway Core Networks, NO
85.214.29.227|/Cannabiscoin:0.13.2/|70019|6724|85.214.0.0/15|DE|ripencc|2005-02-24|STRATO STRATO AG, DE
85.214.33.199|/Cannabiscoin:0.13.2/|70019|6724|85.214.0.0/15|DE|ripencc|2005-02-24|STRATO STRATO AG, DE
85.221.140.206|/Cannabiscoin:0.13.1/|70019|13110|85.221.128.0/17|PL|ripencc|2005-02-08|INEA-AS, PL
85.29.87.172|/Cannabiscoin:0.13.2/|70019|13170|85.29.64.0/18|FI|ripencc|2005-05-12|KPO-AS, FI
89.133.215.246|/Cannabiscoin:0.13.1/|70019|21334|89.132.0.0/15|HU|ripencc|2006-01-17|ASN-VODAFONE-, HU
91.205.168.33|/Cannabiscoin:0.13.1/|70019|25159|91.205.168.0/24|RU|ripencc|2008-09-16|SONICDUO-AS, RU
91.206.16.214|/Cannabiscoin:0.13.1/|70019|13259|91.206.16.0/23|RU|ripencc|2008-06-09|DELTA-TELESYSTEMS-AS, RU
93.240.2.251|/Cannabiscoin:0.13.2/|70019|3320|93.192.0.0/10|DE|ripencc|2008-02-12|DTAG Internet service provider operations, DE
94.245.131.24|/Cannabiscoin:0.13.1/|70019|12389|94.245.130.0/23|RU|ripencc|2008-11-07|ROSTELECOM-AS, RU
94.25.231.118|/Cannabiscoin:0.13.2/|70019|31213|94.25.224.0/21|RU|ripencc|2008-06-10|MF-NWGSM-AS, RU
94.25.231.57|/Cannabiscoin:0.13.2/|70019|31213|94.25.224.0/21|RU|ripencc|2008-06-10|MF-NWGSM-AS, RU
94.25.231.98|/Cannabiscoin:0.13.2/|70019|31213|94.25.224.0/21|RU|ripencc|2008-06-10|MF-NWGSM-AS, RU
95.111.247.164|/Cannabiscoin:0.13.2/|70019|51167|95.111.246.0/23|DE|ripencc|2008-12-30|CONTABO, DE
95.24.37.195|/Cannabiscoin:0.13.1/|70019|8402|95.24.0.0/15|RU|ripencc|2008-10-10|CORBINA-AS OJSC _Vimpelcom_, RU
95.29.158.129|/Cannabiscoin:0.13.2/|70019|8402|95.29.128.0/19|RU|ripencc|2008-10-10|CORBINA-AS OJSC _Vimpelcom_, RU
99.148.47.138|/Cannabiscoin:0.13.2/|70019|7018|99.148.0.0/15|US|arin|2007-08-29|ATT-INTERNET4, US
seed.cannabiscoin.net|/Cannabiscoin:0.13.2/|70019||||||
seed2.cannabiscoin.net|/Satoshi:0.8.7.1/|70015||||||
