# https://chainz.cryptoid.info/ and whois results
# Lanacoin
IP Address|Subver|Version|ASN|BGP Prefix|CC|Registry|Allocated|AS Name
105.112.114.174|/Lana:1.0.0.1/|60001|36873|105.112.112.0/21|NG|afrinic|2013-09-20|VNL1-AS, NG
105.112.123.32|/Lana:1.0.0.1/|60001|36873|105.112.122.0/23|NG|afrinic|2013-09-20|VNL1-AS, NG
105.112.225.136|/Lana:1.0.0.1/|60001|36873|105.112.224.0/21|NG|afrinic|2013-09-20|VNL1-AS, NG
109.252.66.11|/Lana:1.0.0.1/|60001|25513|109.252.0.0/16|RU|ripencc|2009-12-07|ASN-MGTS-USPD, RU
142.202.79.53|/Lana:1.0.0.1/|60001|46292|142.202.79.0/24|US|arin|2019-12-30|MOJAVEWIFI-COM-CA-1, US
146.212.10.142|/Lana:1.0.0.1/|60001|21283|146.212.0.0/16|SI|ripencc|2011-07-13|A1SI-AS A1 Slovenija, SI
155.93.227.23|/Lana:1.0.0.1/|60001|37680|155.93.224.0/20|ZA|afrinic|2016-02-04|COOL-IDEAS, ZA
157.90.181.171|/Lana:1.0.0.1/|60001|24940|157.90.0.0/16|DE|ripencc|1996-12-16|HETZNER-AS, DE
158.140.162.143|???|0|63859|158.140.162.0/24|ID|apnic|1992-10-03|MYREPUBLIC-AS-ID PT. Eka Mas Republik, ID
159.65.206.24|/Lana:1.0.0.1/|60001|14061|159.65.192.0/20|US|arin|2017-10-24|DIGITALOCEAN-ASN, US
169.159.156.241|/Lana:1.0.0.1/|60001|328471|169.159.128.0/19|ZA|afrinic|2016-01-13|Hero-Telecoms, ZA
176.76.64.242|/Lana:1.0.0.1/|60001|3212|176.76.0.0/16|SI|ripencc|2011-06-15|TELEMACH Broadband Access & Carrier Services, SI
182.3.7.8|/Lana:1.0.0.1/|60001|23693|182.3.0.0/19|ID|apnic|2010-01-29|TELKOMSEL-ASN-ID PT. Telekomunikasi Selular, ID
185.82.202.162|/Lana:1.0.0.1/|60001|60117|185.82.202.0/24|AE|ripencc|2014-12-31|HS, AE
188.18.54.247|/Lana:1.0.0.1/|60001|12389|188.18.52.0/22|RU|ripencc|2009-02-03|ROSTELECOM-AS, RU
189.29.169.216|/Lana:1.0.0.1/|60001|28573|189.29.128.0/18|BR|lacnic|2007-04-02|CLARO S.A., BR
193.164.140.162|/Lana:1.0.0.1/|60001|41427|193.164.140.0/24|SI|ripencc|2006-08-18|MARC-NET_AS, SI
193.77.158.82|/Lana:1.0.0.1/|60001|5603|193.77.128.0/18|SI|ripencc|1993-09-01|SIOL-NET Telekom Slovenije d.d., SI
2.126.56.69|/Lana:1.0.0.1/|60001|5607|2.120.0.0/13|GB|ripencc|2010-04-14|BSKYB-BROADBAND-AS, GB
24.132.202.61|/Lana:1.0.0.1/|60001|33915|24.132.128.0/17|NL|ripencc|2000-01-17|TNF-AS, NL
37.221.194.168|/Lana:1.0.0.1/|60001|197540|37.221.192.0/21|DE|ripencc|2012-04-10|NETCUP-AS netcup GmbH, DE
44.226.133.129|/Lana:1.0.0.1/|60001|16509|44.224.0.0/11|US|arin|2019-07-18|AMAZON-02, US
45.132.247.73|/Lana:1.0.0.1/|60001|197540|45.132.244.0/22|DE|ripencc|2019-07-24|NETCUP-AS netcup GmbH, DE
46.101.235.143|/Lana:1.0.0.1/|60001|14061|46.101.128.0/17|US|ripencc|2010-06-24|DIGITALOCEAN-ASN, US
46.23.35.70|/Lana:1.0.0.1/|60001|24651|46.23.32.0/20|LV|ripencc|2010-12-02|LVBALTICOM-AS, LV
47.200.75.150|/Lana:1.0.0.1/|60001|5650|47.200.0.0/14|US|arin|2015-08-28|FRONTIER-FRTR, US
49.144.218.103|/Lana:1.0.0.1/|60001|9299|49.144.208.0/20|PH|apnic|2010-11-22|IPG-AS-AP Philippine Long Distance Telephone Company, PH
5.9.145.235|/Lana:1.0.0.1/|60001|24940|5.9.0.0/16|DE|ripencc|2012-04-25|HETZNER-AS, DE
51.38.57.53|/Lana:1.0.0.1/|60001|16276|51.38.0.0/16|FR|ripencc|1993-09-01|OVH, FR
51.68.204.201|/Lana:1.0.0.1/|60001|16276|51.68.0.0/16|FR|ripencc|1993-09-01|OVH, FR
62.171.190.193|/Lana:1.0.0.1/|60001|51167|62.171.190.0/23|DE|ripencc|2000-08-18|CONTABO, DE
62.238.178.129|/Lana:1.0.0.1/|60001|15542|62.238.0.0/16|NL|ripencc|2000-11-02|ZEELANDNET DELTA Fiber Nederland, NL
66.55.78.57|/Lana:1.0.0.1/|60001|8100|66.55.78.0/24|US|arin|2009-10-08|ASN-QUADRANET-GLOBAL, US
67.183.190.36|/Lana:1.0.0.1/|60001|7922|67.160.0.0/11|US|arin|2002-12-16|COMCAST-7922, US
68.39.103.25|/Lana:1.0.0.1/|60001|7922|68.32.0.0/11|US|arin|2001-11-29|COMCAST-7922, US
71.205.83.216|/Lana:1.0.0.1/|60001|7922|71.192.0.0/12|US|arin|2005-07-27|COMCAST-7922, US
74.136.37.85|/Lana:1.0.0.1/|60001|10796|74.128.0.0/12|US|arin|2006-04-07|TWC-10796-MIDWEST, US
77.38.50.61|/Lana:1.0.0.1/|60001|3212|77.38.0.0/17|SI|ripencc|2007-03-22|TELEMACH Broadband Access & Carrier Services, SI
80.101.10.20|/Lana:1.0.0.1/|60001|3265|80.100.0.0/15|NL|ripencc|2001-07-16|XS4ALL-NL Amsterdam, NL
83.31.134.229|/Lana:1.0.0.1/|60001|5617|83.24.0.0/13|PL|ripencc|2003-12-03|TPNET, PL
83.31.135.132|/Lana:1.0.0.1/|60001|5617|83.24.0.0/13|PL|ripencc|2003-12-03|TPNET, PL
83.8.175.117|/Lana:1.0.0.1/|60001|5617|83.8.0.0/13|PL|ripencc|2003-12-03|TPNET, PL
84.162.162.5|/Lana:1.0.0.1/|60001|3320|84.128.0.0/10|DE|ripencc|2004-03-10|DTAG Internet service provider operations, DE
86.9.173.126|/Lana:1.0.0.1/|60001|5089|86.9.0.0/16|GB|ripencc|2005-03-29|NTL, GB
88.198.62.49|/Lana:1.0.0.1/|60001|24940|88.198.0.0/16|DE|ripencc|2005-12-27|HETZNER-AS, DE
89.142.71.234|/Lana:1.0.0.1/|60001|5603|89.142.64.0/18|SI|ripencc|2006-03-03|SIOL-NET Telekom Slovenije d.d., SI
89.212.11.158|/Lana:1.0.0.1/|60001|34779|89.212.0.0/18|SI|ripencc|2006-05-03|T-2-AS AS set propagated by T-2 d.o.o., SI
89.71.161.167|/Lana:1.0.0.1/|60001|6830|89.64.0.0/13|PL|ripencc|2006-02-22|LIBERTYGLOBAL Liberty Global formerly UPC Broadband Holding, aka AORTA, NL
90.200.102.167|/Lana:1.0.0.1/|60001|5607|90.192.0.0/11|GB|ripencc|2006-05-31|BSKYB-BROADBAND-AS, GB
91.206.16.214|/Lana:1.0.0.1/|60001|13259|91.206.16.0/23|RU|ripencc|2008-06-09|DELTA-TELESYSTEMS-AS, RU
93.103.20.240|/Lana:1.0.0.1/|60001|34779|93.103.0.0/19|SI|ripencc|2008-03-14|T-2-AS AS set propagated by T-2 d.o.o., SI
94.130.132.133|/Lana:1.0.0.1/|60001|24940|94.130.0.0/16|DE|ripencc|2008-06-23|HETZNER-AS, DE
94.134.119.144|/Lana:1.0.0.1/|60001|8881|94.134.119.0/24|DE|ripencc|2008-08-07|VERSATEL, DE
94.134.119.184|/Lana:1.0.0.1/|60001|8881|94.134.119.0/24|DE|ripencc|2008-08-07|VERSATEL, DE
95.217.77.209|/Lana:1.0.0.1/|60001|24940|95.217.0.0/16|DE|ripencc|2009-02-24|HETZNER-AS, DE
95.90.198.115|/Lana:1.0.0.1/|60001|3209|95.88.0.0/14|DE|ripencc|2008-12-15|VODANET International IP-Backbone of Vodafone, DE
