# https://chainz.cryptoid.info/ and whois results
# PandaCoin
IP Address|Subver|Version|ASN|BGP Prefix|CC|Registry|Allocated|AS Name
109.181.62.84|/Satoshi:0.16.3/Pandacoin:4.9.0/|70015|12576|109.181.0.0/16|GB|ripencc|2010-04-12|EE Ltd, GB
110.170.117.113|/Satoshi:0.16.3/Pandacoin:4.9.0/|70015|7470|110.170.96.0/19|TH|apnic|2009-04-23|TRUEINTERNET-AS-AP TRUE INTERNET Co.,Ltd., TH
139.177.204.161|/Satoshi:0.16.3/Pandacoin:4.9.1/|70015|63949|139.177.200.0/21|US|arin|2021-03-24|LINODE-AP Linode, LLC, US
157.90.155.61|/Satoshi:0.20.2/Pandacoin:4.10.4/|70015|24940|157.90.0.0/16|DE|ripencc|1996-12-16|HETZNER-AS, DE
162.55.185.111|/Satoshi:0.16.3/Pandacoin:4.9.0/|70015|24940|162.55.0.0/16|DE|ripencc|1992-08-03|HETZNER-AS, DE
167.86.118.253|/Satoshi:0.16.3/Pandacoin:4.9.0/|70015|51167|167.86.118.0/23|DE|ripencc|1993-05-14|CONTABO, DE
171.101.165.28|/Satoshi:0.16.3/Pandacoin:4.9.0/|70015|17552|171.101.128.0/18|TH|apnic|2011-03-07|TRUEONLINE-AS-AP True Online, TH
176.58.123.119|/Satoshi:0.20.2/Pandacoin:4.10.4/|70015|63949|176.58.96.0/19|US|ripencc|2011-06-06|LINODE-AP Linode, LLC, US
178.198.132.125|/Satoshi:0.20.2/Pandacoin:4.10.4/|70015|3303|178.198.0.0/15|CH|ripencc|2010-02-24|SWISSCOM Swisscom Switzerland Ltd, CH
178.4.159.18|???|70015|3209|178.0.0.0/12|DE|ripencc|2010-01-12|VODANET International IP-Backbone of Vodafone, DE
180.183.208.114|/Satoshi:0.16.3/Pandacoin:4.9.0/|70015|45758|180.183.0.0/16|TH|apnic|2009-09-16|TTBP-AS-AP Triple T Broadband Public Company Limited, TH
183.89.4.244|/Satoshi:0.16.3/Pandacoin:4.9.0/|70015|45629|183.89.0.0/16|TH|apnic|2009-11-13|JASTEL-NETWORK-TH-AP JasTel Network International Gateway, TH
185.250.206.245|/Satoshi:0.16.3/Pandacoin:4.9.1/|70015|204601|185.250.206.0/24|NL|ripencc|2018-03-21|ON-LINE-DATA Server location - Netherlands, Dronten, NL
213.161.21.113|/Satoshi:0.16.3/Pandacoin:4.9.1/|70015|3212|213.161.0.0/19|SI|ripencc|1999-12-23|TELEMACH Broadband Access & Carrier Services, SI
220.167.106.74|/Satoshi:0.16.3/Pandacoin:4.9.1/|70015|38283|220.167.106.0/24|CN|apnic|2002-10-30|CHINANET-SCIDC-AS-AP CHINANET SiChuan Telecom Internet Data Center, CN
223.24.186.117|/Satoshi:0.16.3/Pandacoin:4.9.0/|70015|132061|223.24.186.0/24|TH|apnic|2010-08-10|REALMOVE-AS-AP Realmove Company Limited, TH
27.55.77.18|/Satoshi:0.16.3/Pandacoin:4.9.0/|70015|132061|27.55.77.0/24|TH|apnic|2010-03-19|REALMOVE-AS-AP Realmove Company Limited, TH
31.49.149.183|/Satoshi:0.16.3/Pandacoin:4.9.1/|70015|2856|31.48.0.0/13|GB|ripencc|2010-12-31|BT-UK-AS BTnet UK Regional network, GB
37.195.2.137|/Satoshi:0.16.3/Pandacoin:4.9.0/|70015|31200|37.195.0.0/16|RU|ripencc|2012-03-21|NTK IPv6 customers, RU
45.14.71.11|/Satoshi:0.16.3/Pandacoin:4.9.0/|70015|4785|45.14.71.0/24|DE|ripencc|2019-05-08|XTOM-AS-JP xTom, JP
45.79.193.237|/Satoshi:0.16.3/Pandacoin:4.9.1/|70015|63949|45.79.192.0/19|US|arin|2015-04-29|LINODE-AP Linode, LLC, US
49.12.76.104|/Satoshi:0.16.3/Pandacoin:4.9.1/|70015|24940|49.12.0.0/16|DE|ripencc|2010-10-21|HETZNER-AS, DE
68.224.56.144|/Satoshi:0.16.3/Pandacoin:4.9.1/|70015|22773|68.224.0.0/17|US|arin|2003-03-19|ASN-CXA-ALL-CCI-22773-RDC, US
71.205.83.216|/Satoshi:0.16.3/Pandacoin:4.9.0/|70015|7922|71.192.0.0/12|US|arin|2005-07-27|COMCAST-7922, US
73.254.118.233|/Satoshi:0.16.3/Pandacoin:4.9.1/|70015|7922|73.0.0.0/8|US|arin|2005-04-19|COMCAST-7922, US
73.52.89.135|/Satoshi:0.16.3/Pandacoin:4.9.1/|70015|7922|73.0.0.0/8|US|arin|2005-04-19|COMCAST-7922, US
75.150.121.113|/Satoshi:0.16.3/Pandacoin:4.9.1/|70015|7922|75.144.0.0/13|US|arin|2006-09-25|COMCAST-7922, US
76.66.136.4|/Satoshi:0.16.3/Pandacoin:4.9.1/|70015|577|76.66.0.0/16|CA|arin|2006-12-04|BACOM, CA
79.138.52.171|/Satoshi:0.16.3/Pandacoin:4.9.1/|70015|45011|79.138.0.0/17|SE|ripencc|2007-10-19|SE-A3 www.a3.se, SE
80.220.246.228|/Satoshi:0.16.3/Pandacoin:4.9.1/|70015|1759|80.220.0.0/14|FI|ripencc|2002-03-27|TSF-IP-CORE Telia Finland Oyj, FI
95.168.164.219|/Satoshi:0.16.3/Pandacoin:4.9.1/|70015|60781|95.168.160.0/20|NL|ripencc|2009-01-06|LEASEWEB-NL-AMS-01 Netherlands, NL
95.239.25.159|/Satoshi:0.16.3/Pandacoin:4.9.0/|70015|3269|95.238.0.0/15|IT|ripencc|2009-01-15|ASN-IBSNAZ, IT
96.71.184.110|/Satoshi:0.16.3/Pandacoin:4.9.0/|70015|7922|96.64.0.0/11|US|arin|2008-02-21|COMCAST-7922, US
